19
Coordinates from ORCA-job 4nitroaniline_water_2 E -567.849719715748
  O          -2.39738432029708      7.88767853901665      0.56008712905688
  O          -2.19572676282571      5.82558197183011     -0.07202020080325
  N          -2.85853145473574      6.82217383128086      0.17754186564761
  N          -8.45753968272795      6.47774104035978     -0.43994270345528
  C          -4.31232855500291      6.73287114630006      0.00571570577980
  C          -7.07424543382966      6.56670395849996     -0.33142255152655
  C          -5.10692768169447      7.84636158896585      0.29241222460546
  C          -4.87630074066452      5.53530265912102     -0.43669856750140
  C          -6.48275032895989      7.76208712910974      0.12962041614670
  C          -6.25357272353526      5.45503821394194     -0.60438750649980
  H          -4.63066132924113      8.75979804425142      0.64738425206190
  H          -4.22453374056660      4.68826653905043     -0.64822455626904
  H          -7.12144586455197      8.60475588248632      0.40001222513933
  H          -6.70452578830288      4.52364202014323     -0.95643865887994
  H          -8.94011923213887      7.32785295395154     -0.71629666385601
  H          -8.82146326250102      5.65066256968721     -0.90289779027027
  O          -8.81358695855075      7.49432698881838      2.31641747870845
  H          -7.97122530250585      7.19687634653477      2.68497188919602
  H          -8.86001083736742      7.01898857665045      1.47041601271940
