19
Coordinates from ORCA-job 4nitroaniline_water_2_OPT E -567.850919844193
O        2.6564963626     -0.4722564747      1.3460196757                 
O        2.7259080305     -0.3265998663     -0.8139524062                 
N        2.1558443160     -0.2106614206      0.2614139524                 
N       -3.1553403472      1.7003671867      0.2126769946                 
C        0.7729260133      0.2767374523      0.2497518301                 
C       -1.8604934406      1.1930728056      0.2273325816                 
C        0.0881684338      0.4191680035      1.4577632685                 
C        0.1663100526      0.5922657996     -0.9693027506                 
C       -1.2240497158      0.8761616919      1.4438104185                 
C       -1.1432349543      1.0520328581     -0.9809034412                 
H        0.5946433983      0.1639193557      2.3879449460                 
H        0.7367856384      0.4741678288     -1.8901038612                 
H       -1.7698062444      0.9868535293      2.3845312156                 
H       -1.6222011759      1.3492181384     -1.9152789499                 
H       -3.6886502349      1.5589531537      1.0703559515                 
H       -3.7030974023      1.4833980528     -0.6159829244                 
O       -4.4462992333      4.4818280121      0.4280744754                 
H       -3.8637438530      3.7160420644      0.3304013606                 
H       -3.8326586184      5.2338695460      0.3788509797                 
