19
Coordinates from ORCA-job 4nitroaniline_water_2_OPT E -567.846126983193
  O       2.656496     -0.472256      1.346020
  O       2.725908     -0.326600     -0.813952
  N       2.155844     -0.210661      0.261414
  N      -3.155340      1.700367      0.212677
  C       0.772926      0.276737      0.249752
  C      -1.860493      1.193073      0.227333
  C       0.088168      0.419168      1.457763
  C       0.166310      0.592266     -0.969303
  C      -1.224050      0.876162      1.443810
  C      -1.143235      1.052033     -0.980903
  H       0.594643      0.163919      2.387945
  H       0.736786      0.474168     -1.890104
  H      -1.769806      0.986854      2.384531
  H      -1.622201      1.349218     -1.915279
  H      -3.688650      1.558953      1.070356
  H      -3.703097      1.483398     -0.615983
  O      -4.446299      4.481828      0.428074
  H      -3.863744      3.716042      0.330401
  H      -3.832659      5.233870      0.378851
19
Coordinates from ORCA-job 4nitroaniline_water_2_OPT E -567.846461564899
  O       2.650761     -0.465832      1.351057
  O       2.719765     -0.335961     -0.810141
  N       2.150839     -0.210885      0.264776
  N      -3.155078      1.714466      0.203687
  C       0.770363      0.282480      0.250389
  C      -1.859582      1.210312      0.221776
  C       0.084691      0.433923      1.457111
  C       0.165195      0.590556     -0.970710
  C      -1.226570      0.892887      1.440089
  C      -1.142126      1.055986     -0.984121
  H       0.589405      0.181619      2.389091
  H       0.733605      0.459295     -1.891032
  H      -1.773255      1.008934      2.379402
  H      -1.627038      1.318948     -1.927366
  H      -3.695593      1.559895      1.048393
  H      -3.695666      1.512110     -0.631241
  O      -4.432690      4.452371      0.445426
  H      -3.846027      3.685748      0.341524
  H      -3.823491      5.201682      0.415292
19
Coordinates from ORCA-job 4nitroaniline_water_2_OPT E -567.846611399834
  O       2.643340     -0.452160      1.358820
  O       2.713042     -0.343328     -0.803594
  N       2.147761     -0.197669      0.270629
  N      -3.158986      1.725390      0.191241
  C       0.766240      0.292580      0.250942
  C      -1.865036      1.219038      0.212332
  C       0.078144      0.452601      1.455448
  C       0.161011      0.586179     -0.973317
  C      -1.232776      0.911334      1.433908
  C      -1.147042      1.049721     -0.990167
  H       0.582186      0.209308      2.390228
  H       0.729237      0.445347     -1.892221
  H      -1.779667      1.037714      2.371638
  H      -1.633618      1.281019     -1.941533
  H      -3.712492      1.555182      1.023721
  H      -3.691690      1.547687     -0.654457
  O      -4.402731      4.416386      0.469020
  H      -3.816152      3.648206      0.356290
  H      -3.793264      5.164003      0.464477
19
Coordinates from ORCA-job 4nitroaniline_water_2_OPT E -567.846102221393
  O       2.647144     -0.378899      1.374153
  O       2.718706     -0.305068     -0.789095
  N       2.134017     -0.199489      0.279379
  N      -3.166595      1.740056      0.169932
  C       0.752518      0.290735      0.250690
  C      -1.877735      1.223709      0.195363
  C       0.062007      0.469923      1.451529
  C       0.148228      0.563069     -0.978466
  C      -1.246521      0.933245      1.422440
  C      -1.159961      1.027128     -1.001270
  H       0.564417      0.240772      2.390815
  H       0.715800      0.405242     -1.894802
  H      -1.792793      1.080141      2.357385
  H      -1.645084      1.215259     -1.963524
  H      -3.743321      1.546097      0.982300
  H      -3.685462      1.609441     -0.693980
  O      -4.344562      4.372729      0.509885
  H      -3.762550      3.600005      0.381514
  H      -3.730744      5.114443      0.549157
19
Coordinates from ORCA-job 4nitroaniline_water_2_OPT E -567.846721255707
  O       2.642997     -0.423438      1.368268
  O       2.714302     -0.335769     -0.795061
  N       2.143425     -0.192654      0.276585
  N      -3.164265      1.727932      0.177952
  C       0.760757      0.294791      0.250835
  C      -1.872153      1.218197      0.201535
  C       0.071742      0.467245      1.453290
  C       0.155207      0.573683     -0.976617
  C      -1.238758      0.925960      1.426836
  C      -1.154361      1.034204     -0.997994
  H       0.575632      0.234771      2.390914
  H       0.723480      0.423966     -1.893999
  H      -1.785353      1.064731      2.362979
  H      -1.637480      1.249876     -1.954644
  H      -3.731260      1.542076      1.000296
  H      -3.687798      1.578760     -0.680285
  O      -4.374993      4.395403      0.494312
  H      -3.790116      3.626551      0.372256
  H      -3.763501      5.142252      0.515947
19
Coordinates from ORCA-job 4nitroaniline_water_2_OPT E -567.846755058803
  O       2.643057     -0.423038      1.369527
  O       2.715002     -0.337369     -0.793872
  N       2.144296     -0.192079      0.277517
  N      -3.165144      1.722361      0.175920
  C       0.761419      0.294257      0.250775
  C      -1.872364      1.214497      0.199754
  C       0.072698      0.469030      1.453084
  C       0.155676      0.570834     -0.977091
  C      -1.238087      0.926722      1.425752
  C      -1.154626      1.029659     -0.999745
  H       0.577102      0.239412      2.391126
  H       0.724040      0.420131     -1.894276
  H      -1.784619      1.067507      2.361649
  H      -1.636136      1.249133     -1.956119
  H      -3.732993      1.533711      0.997663
  H      -3.686298      1.577537     -0.684715
  O      -4.377315      4.402032      0.498298
  H      -3.791963      3.634464      0.375095
  H      -3.766237      5.149735      0.523062
19
Coordinates from ORCA-job 4nitroaniline_water_2_OPT E -567.846807528093
  O       2.642191     -0.413508      1.375338
  O       2.716084     -0.339432     -0.788449
  N       2.144645     -0.187609      0.281674
  N      -3.169472      1.711049      0.166722
  C       0.760859      0.295533      0.250803
  C      -1.875432      1.207923      0.192177
  C       0.071977      0.479208      1.451971
  C       0.154562      0.561803     -0.978959
  C      -1.239384      0.934245      1.420835
  C      -1.157645      1.016058     -1.006083
  H       0.577375      0.259703      2.391886
  H       0.722961      0.405148     -1.895172
  H      -1.785862      1.083636      2.355416
  H      -1.636493      1.233567     -1.963937
  H      -3.743386      1.510705      0.981505
  H      -3.681018      1.587150     -0.702412
  O      -4.370351      4.406416      0.515913
  H      -3.783916      3.641966      0.386904
  H      -3.760187      5.154976      0.557273
19
Coordinates from ORCA-job 4nitroaniline_water_2_OPT E -567.846833731187
  O       2.641798     -0.403195      1.379217
  O       2.716970     -0.336769     -0.784735
  N       2.144168     -0.182935      0.284392
  N      -3.173692      1.703386      0.160597
  C       0.759623      0.297425      0.250931
  C      -1.878651      1.204092      0.187247
  C       0.070146      0.485905      1.451206
  C       0.152996      0.556513     -0.979988
  C      -1.241768      0.938635      1.417574
  C      -1.160436      1.007464     -1.010004
  H       0.576088      0.272838      2.392292
  H       0.721513      0.396037     -1.895455
  H      -1.788425      1.093306      2.351192
  H      -1.639434      1.218496     -1.969243
  H      -3.752345      1.495629      0.969802
  H      -3.678697      1.595450     -0.714112
  O      -4.359730      4.406929      0.527471
  H      -3.772380      3.644010      0.394481
  H      -3.750238      5.155323      0.580538
19
Coordinates from ORCA-job 4nitroaniline_water_2_OPT E -567.846863156950
  O       2.641829     -0.387093      1.382626
  O       2.717566     -0.328277     -0.781399
  N       2.143163     -0.173964      0.286800
  N      -3.180593      1.693107      0.155495
  C       0.757157      0.301149      0.251308
  C      -1.884228      1.198938      0.183209
  C       0.066490      0.491712      1.450672
  C       0.150009      0.553098     -0.980555
  C      -1.246621      0.940145      1.414886
  C      -1.165029      0.999255     -1.013114
  H       0.573014      0.284508      2.392648
  H       0.719088      0.390608     -1.895336
  H      -1.793899      1.098190      2.347545
  H      -1.646094      1.201027     -1.973491
  H      -3.764124      1.479960      0.958932
  H      -3.679458      1.603057     -0.724174
  O      -4.339298      4.405752      0.536677
  H      -3.751162      3.643945      0.400146
  H      -3.730302      5.153419      0.600529
19
Coordinates from ORCA-job 4nitroaniline_water_2_OPT E -567.846897172752
  O       2.641946     -0.375960      1.382379
  O       2.717934     -0.313619     -0.781627
  N       2.142211     -0.164208      0.286659
  N      -3.188089      1.682512      0.156875
  C       0.754506      0.305708      0.251761
  C      -1.890375      1.194009      0.184308
  C       0.062534      0.491587      1.451283
  C       0.146515      0.556917     -0.979834
  C      -1.252138      0.935352      1.415794
  C      -1.170043      0.997896     -1.012161
  H       0.569653      0.284711      2.393120
  H       0.716307      0.397643     -1.894745
  H      -1.800312      1.090311      2.348436
  H      -1.654475      1.194932     -1.971880
  H      -3.772683      1.471745      0.959186
  H      -3.685801      1.601013     -0.723603
  O      -4.315803      4.403959      0.533143
  H      -3.726993      3.642329      0.396863
  H      -3.707387      5.151702      0.597447
19
Coordinates from ORCA-job 4nitroaniline_water_2_OPT E -567.846945800305
  O       2.642380     -0.362785      1.377690
  O       2.717601     -0.283332     -0.785823
  N       2.140671     -0.146828      0.283616
  N      -3.200930      1.664584      0.167040
  C       0.749923      0.313639      0.252637
  C      -1.901003      1.185265      0.192250
  C       0.056220      0.484246      1.453447
  C       0.140097      0.570457     -0.977087
  C      -1.261650      0.918918      1.421534
  C      -1.178732      1.003223     -1.005825
  H       0.564484      0.271990      2.393490
  H       0.711317      0.422843     -1.893053
  H      -1.811342      1.061009      2.355351
  H      -1.668403      1.201316     -1.962808
  H      -3.782802      1.466789      0.973739
  H      -3.702900      1.585681     -0.710794
  O      -4.274704      4.401347      0.512200
  H      -3.684716      3.639232      0.380608
  H      -3.668004      5.150942      0.565191
19
Coordinates from ORCA-job 4nitroaniline_water_2_OPT E -567.846967740874
  O       2.642808     -0.361189      1.372301
  O       2.717079     -0.264052     -0.790575
  N       2.140164     -0.137752      0.280102
  N      -3.207396      1.655273      0.177936
  C       0.747610      0.317429      0.253159
  C      -1.906557      1.180052      0.200632
  C       0.053319      0.475103      1.455261
  C       0.136534      0.582482     -0.974572
  C      -1.266440      0.904632      1.427351
  C      -1.183499      1.011041     -0.999151
  H       0.562304      0.256019      2.393369
  H       0.708579      0.445171     -1.891673
  H      -1.816741      1.034731      2.362527
  H      -1.674253      1.217852     -1.953699
  H      -3.783943      1.470568      0.991765
  H      -3.716251      1.568839     -0.695414
  O      -4.253738      4.400868      0.490648
  H      -3.662983      3.638367      0.364408
  H      -3.649089      5.153104      0.529030
19
Coordinates from ORCA-job 4nitroaniline_water_2_OPT E -567.846975727954
  O       2.642800     -0.365252      1.369497
  O       2.716293     -0.260931     -0.793054
  N       2.140152     -0.137174      0.278353
  N      -3.208284      1.653720      0.183349
  C       0.747488      0.317814      0.253185
  C      -1.907096      1.179251      0.204677
  C       0.053503      0.470546      1.455895
  C       0.136153      0.587856     -0.973490
  C      -1.266730      0.899058      1.430108
  C      -1.183972      1.016260     -0.995886
  H       0.562597      0.247566      2.393023
  H       0.708296      0.454740     -1.891087
  H      -1.817038      1.023560      2.366097
  H      -1.672717      1.230673     -1.949676
  H      -3.780805      1.475071      1.002093
  H      -3.721633      1.559576     -0.687052
  O      -4.251881      4.401089      0.480227
  H      -3.659969      3.639206      0.356698
  H      -3.649648      5.155911      0.510446
19
Coordinates from ORCA-job 4nitroaniline_water_2_OPT E -567.846978547468
  O       2.642809     -0.367754      1.368829
  O       2.715898     -0.262437     -0.793686
  N       2.140228     -0.138443      0.277961
  N      -3.207777      1.654516      0.184680
  C       0.747726      0.317236      0.253105
  C      -1.906613      1.179509      0.205523
  C       0.053942      0.469323      1.455924
  C       0.136463      0.588817     -0.973321
  C      -1.266200      0.898237      1.430653
  C      -1.183618      1.017829     -0.995164
  H       0.562937      0.245503      2.392881
  H       0.708558      0.456416     -1.891071
  H      -1.816294      1.021750      2.366879
  H      -1.670135      1.235551     -1.949290
  H      -3.778456      1.477117      1.005263
  H      -3.722555      1.556733     -0.684621
  O      -4.254258      4.400907      0.477830
  H      -3.661025      3.640099      0.354972
  H      -3.654122      5.157628      0.506057
19
Coordinates from ORCA-job 4nitroaniline_water_2_OPT E -567.846981004698
  O       2.642764     -0.369229      1.368972
  O       2.715564     -0.265649     -0.793615
  N       2.140235     -0.140252      0.278057
  N      -3.206961      1.656041      0.184498
  C       0.748045      0.316456      0.252955
  C      -1.905828      1.180300      0.205181
  C       0.054447      0.469450      1.455723
  C       0.136962      0.588256     -0.973472
  C      -1.265458      0.899119      1.430378
  C      -1.182990      1.018193     -0.995371
  H       0.563234      0.245773      2.392823
  H       0.708883      0.455259     -1.891223
  H      -1.815339      1.023151      2.366670
  H      -1.667320      1.236944     -1.950337
  H      -3.776661      1.477936      1.005762
  H      -3.721939      1.556085     -0.684505
  O      -4.257642      4.400211      0.478284
  H      -3.662130      3.641286      0.355353
  H      -3.660357      5.159207      0.507271
