! wB97X-D3 def2-SVP OPT NormalSCF

%pal
nprocs 28
end

%maxcore 3500

%scf
 SmearTemp 500 
end

* xyz 0 1 
C          3.27420       -1.42970       -0.06200
C          3.57140       -0.01920       -0.08500
C          3.31190        0.79090        1.07890
C          2.71820       -2.02920        1.12330
C          2.77020       -1.79900       -1.36120
C          3.25070        0.48310       -1.39920
C          2.73320        2.10420        0.93000
C          2.75590        0.19130        2.26420
C          1.65740       -2.99890        1.01110
C          2.45860       -1.21920        2.28720
C          1.70930       -2.76870       -1.47340
C          2.75590       -0.61590       -2.18720
C          2.67250        1.79520       -1.54850
C          1.81900        2.31540        2.02450
C          2.41290        2.60560       -0.38320
C          1.83270        1.13330        2.84950
C          1.15330       -3.36820       -0.28810
C          0.74200       -2.78770        2.10630
C          1.23670       -1.68870        2.89430
C          0.63440       -2.55730       -2.41250
C          1.68220       -0.40430       -3.12560
C          1.59880        2.00680       -2.48700
C          0.58630        3.02700        1.80620
C          1.18020        3.31710       -0.60150
C          0.61200        0.66370        3.45590
C         -0.26600       -3.52830       -0.49300
C         -0.67620       -2.94750        1.90210
C          0.31410       -0.74800        3.47920
C         -0.58630       -3.02700       -1.80620
C          0.62070       -1.37520       -3.23750
C          1.10400        0.90780       -3.27500
C          0.67620        2.94750       -1.90210
C          0.26600        3.52830        0.49300
C         -0.63440        2.55730        2.41250
C         -0.62070        1.37520        3.23750
C         -1.18020       -3.31710        0.60150
C         -1.59880       -2.00680        2.48700
C         -1.10400       -0.90780        3.27500
C         -1.81900       -2.31540       -2.02450
C         -0.61200       -0.66370       -3.45590
C         -0.31410        0.74800       -3.47920
C         -0.74200        2.78770       -2.10630
C         -1.15330        3.36820        0.28810
C         -1.70930        2.76870        1.47340
C         -1.68220        0.40430        3.12560
C         -2.41290       -2.60560        0.38320
C         -2.67250       -1.79520        1.54850
C         -2.73320       -2.10420       -0.93000
C         -1.83270       -1.13330       -2.84950
C         -1.23670        1.68870       -2.89430
C         -1.65740        2.99890       -1.01110
C         -2.77020        1.79900        1.36120
C         -2.75590        0.61590        2.18720
C         -3.25070       -0.48310        1.39920
C         -3.31190       -0.79090       -1.07890
C         -2.75590       -0.19130       -2.26420
C         -2.45860        1.21920       -2.28720
C         -2.71820        2.02920       -1.12330
C         -3.27420        1.42970        0.06200
C         -3.57140        0.01920        0.08500
H          0.47240        2.93930        4.93150
C         -0.50170        3.40540        5.11390
H         -0.55290        3.71920        6.16010
H          0.06510        5.33500        4.35970
C         -0.71150        4.58200        4.18470
O         -0.63640        4.12550        2.83010
H         -1.26030        2.63540        4.93800
C         -0.80870        5.08740        1.87360
C         -0.70310        4.44080        0.51390
O         -1.01590        6.27390        2.08480
H         -1.69650        5.02610        4.36630
C         -0.88390        5.35280       -0.67510
H          0.21690        3.88990       -4.17550
O         -0.76940        4.61040       -1.81740
H         -0.14430        6.11340       -3.09990
O         -1.09530        6.55610       -0.62510
C         -0.91480        5.33650       -3.04240
C         -0.76260        4.37830       -4.20450
H         -0.86840        4.90130       -5.15900
H         -1.51530        3.58470       -4.15080
H         -1.90550        5.80330       -3.07470
*
