16
Coordinates from ORCA-job 4nitroaniline_2 E -491.516071925061
  O           2.72106007608871      1.08323763828731     -0.00015103320486
  O           2.72107943957371     -1.08324198135124     -0.00041228699222
  N           2.15037284543795     -0.00002183788955     -0.00015934432804
  N          -3.47453808116522      0.00000558012858      0.00128483926913
  C           0.69052885951022     -0.00000185009049      0.00008916675735
  C          -2.11038101725365     -0.00000011793917      0.00044015930269
  C           0.00033511258637      1.21620031429974      0.00033837143255
  C           0.00033608109544     -1.21620250086961      0.00000613395529
  C          -1.38584599970432      1.21636063348825      0.00050477456552
  C          -1.38584684629252     -1.21635986002734      0.00017288529722
  H           0.56911429538207      2.14558140687903      0.00035488299633
  H           0.56912230879670     -2.14558091746905     -0.00022709238172
  H          -1.92907885184911      2.16481816115709      0.00073157108894
  H          -1.92908575762545     -2.16481426353422      0.00013702687416
  H          -3.99412983383110      0.86546460627229     -0.00304008887547
  H          -3.99414263074980     -0.86544501134161     -0.00326996575689
