16
Coordinates from ORCA-job 4nitroaniline_2 E -491.509837869645
  O       2.737400      1.097600     -0.000700
  O       2.737300     -1.097600      0.000300
  N       2.129200      0.000000     -0.000100
  N      -3.490800     -0.000100      0.000100
  C       0.709300      0.000000      0.000500
  C      -2.080400      0.000000     -0.000500
  C       0.012000      1.208000      0.000500
  C       0.011900     -1.208000      0.000100
  C      -1.382900      1.208000      0.000000
  C      -1.383000     -1.207900     -0.000400
  H       0.521900      2.168000      0.000800
  H       0.521800     -2.168000      0.000000
  H      -1.915400      2.155800      0.000300
  H      -1.915400     -2.155700     -0.000600
  H      -3.997000      0.875500     -0.001600
  H      -3.997000     -0.875600     -0.001900
16
Coordinates from ORCA-job 4nitroaniline_2 E -491.514874875519
  O       2.722218      1.084159     -0.000791
  O       2.722204     -1.084169     -0.000017
  N       2.136191     -0.000001      0.000137
  N      -3.473448     -0.000019      0.000211
  C       0.700270     -0.000009      0.000390
  C      -2.095774      0.000009     -0.000019
  C       0.004767      1.213824      0.000449
  C       0.004741     -1.213837      0.000048
  C      -1.385477      1.215478      0.000271
  C      -1.385508     -1.215431     -0.000156
  H       0.535124      2.165056      0.000668
  H       0.535113     -2.165064     -0.000064
  H      -1.919483      2.167887      0.000457
  H      -1.919446     -2.167880     -0.000393
  H      -3.981261      0.871281     -0.002044
  H      -3.981329     -0.871283     -0.002345
16
Coordinates from ORCA-job 4nitroaniline_2 E -491.515914876808
  O       2.718934      1.081331      0.001453
  O       2.718919     -1.081363      0.001912
  N       2.148259      0.000015     -0.001284
  N      -3.470745      0.000009      0.000870
  C       0.694327     -0.000002     -0.000723
  C      -2.109716      0.000003      0.000110
  C       0.000608      1.215220     -0.000264
  C       0.000609     -1.215225     -0.000657
  C      -1.386361      1.217276      0.000137
  C      -1.386363     -1.217272     -0.000282
  H       0.551701      2.155102     -0.000312
  H       0.551714     -2.155110     -0.000978
  H      -1.922203      2.169837      0.000478
  H      -1.922163     -2.169863     -0.000293
  H      -3.984290      0.868874     -0.001542
  H      -3.984331     -0.868833     -0.001826
16
Coordinates from ORCA-job 4nitroaniline_2 E -491.515971903912
  O       2.721429      1.082846     -0.009542
  O       2.721407     -1.082870     -0.009290
  N       2.152346      0.000019      0.006909
  N      -3.474841      0.000010     -0.001634
  C       0.693002     -0.000002      0.004470
  C      -2.112405      0.000002     -0.000040
  C       0.000453      1.215069      0.003254
  C       0.000451     -1.215073      0.002879
  C      -1.385919      1.216530      0.001218
  C      -1.385921     -1.216533      0.000819
  H       0.559718      2.150235      0.004236
  H       0.559717     -2.150245      0.003598
  H      -1.923986      2.168022      0.000614
  H      -1.923963     -2.168043     -0.000107
  H      -3.991282      0.867218     -0.005157
  H      -3.991307     -0.867187     -0.005428
16
Coordinates from ORCA-job 4nitroaniline_2 E -491.515907224789
  O       2.726616      1.085993      0.009530
  O       2.726598     -1.085976      0.009343
  N       2.158932      0.000014     -0.006969
  N      -3.482712      0.000011      0.003036
  C       0.690364     -0.000008     -0.004418
  C      -2.116211     -0.000000      0.000458
  C       0.000384      1.214833     -0.002780
  C       0.000374     -1.214844     -0.003116
  C      -1.385040      1.214814     -0.000568
  C      -1.385049     -1.214829     -0.000918
  H       0.575364      2.140623     -0.003644
  H       0.575329     -2.140639     -0.004228
  H      -1.928142      2.163689      0.000398
  H      -1.928164     -2.163693     -0.000214
  H      -4.004874      0.863898      0.000564
  H      -4.004867     -0.863886      0.000325
16
Coordinates from ORCA-job 4nitroaniline_2 E -491.516067465063
  O       2.722436      1.083505      0.000302
  O       2.722432     -1.083503      0.000297
  N       2.152389      0.000005     -0.000282
  N      -3.476001      0.000007      0.000849
  C       0.691381     -0.000007     -0.000114
  C      -2.111867      0.000002      0.000195
  C       0.000432      1.215407      0.000147
  C       0.000427     -1.215416     -0.000206
  C      -1.385771      1.215807      0.000296
  C      -1.385777     -1.215810     -0.000068
  H       0.566284      2.146619      0.000189
  H       0.566271     -2.146632     -0.000422
  H      -1.927018      2.165427      0.000525
  H      -1.927019     -2.165432     -0.000131
  H      -3.994846      0.865930     -0.002264
  H      -3.994854     -0.865909     -0.002515
16
Coordinates from ORCA-job 4nitroaniline_2 E -491.516070442054
  O       2.721714      1.083353     -0.000105
  O       2.721715     -1.083354     -0.000189
  N       2.151410     -0.000002     -0.000042
  N      -3.475271      0.000006      0.000868
  C       0.690987     -0.000006      0.000083
  C      -2.111149      0.000002      0.000252
  C       0.000427      1.215755      0.000297
  C       0.000423     -1.215762     -0.000050
  C      -1.385789      1.215982      0.000377
  C      -1.385794     -1.215983      0.000023
  H       0.567422      2.146245      0.000359
  H       0.567410     -2.146254     -0.000244
  H      -1.927869      2.165121      0.000571
  H      -1.927871     -2.165122     -0.000064
  H      -3.994429      0.865727     -0.002543
  H      -3.994436     -0.865709     -0.002791
16
Coordinates from ORCA-job 4nitroaniline_2 E -491.516071770460
  O       2.721027      1.083233     -0.000146
  O       2.721073     -1.083195     -0.000365
  N       2.150358     -0.000035     -0.000095
  N      -3.474523      0.000011      0.001133
  C       0.690528     -0.000016      0.000095
  C      -2.110344     -0.000002      0.000359
  C       0.000359      1.216190      0.000325
  C       0.000363     -1.216214     -0.000007
  C      -1.385836      1.216293      0.000451
  C      -1.385836     -1.216301      0.000113
  H       0.569012      2.145660      0.000370
  H       0.569013     -2.145664     -0.000212
  H      -1.929016      2.164782      0.000673
  H      -1.929025     -2.164779      0.000063
  H      -3.994115      0.865487     -0.002860
  H      -3.994138     -0.865448     -0.003097
16
Coordinates from ORCA-job 4nitroaniline_2 E -491.516071925061
  O       2.721060      1.083238     -0.000151
  O       2.721079     -1.083242     -0.000412
  N       2.150373     -0.000022     -0.000159
  N      -3.474538      0.000006      0.001285
  C       0.690529     -0.000002      0.000089
  C      -2.110381     -0.000000      0.000440
  C       0.000335      1.216200      0.000338
  C       0.000336     -1.216203      0.000006
  C      -1.385846      1.216361      0.000505
  C      -1.385847     -1.216360      0.000173
  H       0.569114      2.145581      0.000355
  H       0.569122     -2.145581     -0.000227
  H      -1.929079      2.164818      0.000732
  H      -1.929086     -2.164814      0.000137
  H      -3.994130      0.865465     -0.003040
  H      -3.994143     -0.865445     -0.003270
