15
Coordinates from ORCA-job ABN_2 E -379.373554186367
  N       3.250200     -0.000100      0.000000
  N      -3.540800      0.000100      0.000000
  C       1.839800      0.000000      0.000000
  C       1.142200     -1.208000      0.000000
  C       1.142400      1.208100      0.000000
  C      -0.949900     -0.000100      0.000000
  C      -0.252600     -1.208000      0.000000
  C      -0.252500      1.208000      0.000000
  C      -2.378800      0.000000      0.000000
  H       1.674300     -2.155900      0.000100
  H       1.674600      2.156000      0.000000
  H      -0.782100     -2.157800      0.000000
  H      -0.782100      2.157800      0.000000
  H       3.756400      0.875400     -0.000600
  H       3.756300     -0.875700     -0.000600
15
Coordinates from ORCA-job ABN_2 E -379.375711509793
  N       3.236761     -0.000086      0.000078
  N      -3.549340      0.000198     -0.000008
  C       1.856040     -0.000037     -0.000006
  C       1.146522     -1.214081      0.000011
  C       1.146600      1.214070     -0.000006
  C      -0.953932     -0.000035     -0.000002
  C      -0.245416     -1.213098      0.000013
  C      -0.245354      1.213070     -0.000001
  C      -2.387177      0.000085     -0.000005
  H       1.682175     -2.166090      0.000064
  H       1.682286      2.166055      0.000002
  H      -0.780391     -2.164243      0.000017
  H      -0.780364      2.164195     -0.000002
  H       3.744524      0.870758     -0.000630
  H       3.744465     -0.870961     -0.000625
15
Coordinates from ORCA-job ABN_2 E -379.376162798343
  N       3.233165     -0.000077      0.000164
  N      -3.554915      0.000192     -0.000042
  C       1.868582     -0.000052      0.000034
  C       1.145992     -1.214978      0.000037
  C       1.146028      1.214911      0.000015
  C      -0.959503      0.000007      0.000009
  C      -0.242360     -1.212822      0.000025
  C      -0.242306      1.212800      0.000005
  C      -2.392486      0.000100     -0.000019
  H       1.683392     -2.167015      0.000055
  H       1.683457      2.166925      0.000018
  H      -0.782441     -2.161766      0.000020
  H      -0.782376      2.161745     -0.000014
  H       3.746599      0.868540     -0.000709
  H       3.746572     -0.868710     -0.000698
15
Coordinates from ORCA-job ABN_2 E -379.376207955338
  N       3.236022     -0.000078      0.000219
  N      -3.556418      0.000157     -0.000058
  C       1.870450     -0.000051      0.000052
  C       1.144325     -1.213850      0.000049
  C       1.144372      1.213783      0.000028
  C      -0.962245      0.000017      0.000005
  C      -0.242971     -1.211581      0.000028
  C      -0.242914      1.211575      0.000007
  C      -2.393944      0.000085     -0.000030
  H       1.682954     -2.165194      0.000069
  H       1.683041      2.165103      0.000035
  H      -0.784842     -2.159471      0.000021
  H      -0.784759      2.159478     -0.000016
  H       3.752181      0.867009     -0.000761
  H       3.752148     -0.867182     -0.000748
15
Coordinates from ORCA-job ABN_2 E -379.376216891515
  N       3.236921     -0.000080      0.000303
  N      -3.556863      0.000120     -0.000095
  C       1.870453     -0.000048      0.000089
  C       1.143414     -1.212832      0.000074
  C       1.143475      1.212774      0.000053
  C      -0.963651      0.000023      0.000001
  C      -0.243390     -1.210743      0.000033
  C      -0.243328      1.210754      0.000014
  C      -2.394362      0.000069     -0.000051
  H       1.683515     -2.163251      0.000106
  H       1.683624      2.163165      0.000070
  H      -0.786458     -2.157879      0.000018
  H      -0.786357      2.157913     -0.000017
  H       3.755224      0.865906     -0.000856
  H       3.755184     -0.866091     -0.000842
15
Coordinates from ORCA-job ABN_2 E -379.376217496217
  N       3.236552     -0.000081      0.000377
  N      -3.556786      0.000111     -0.000134
  C       1.870056     -0.000047      0.000124
  C       1.143383     -1.212787      0.000100
  C       1.143445      1.212731      0.000078
  C      -0.963659      0.000025     -0.000001
  C      -0.243423     -1.210767      0.000041
  C      -0.243361      1.210782      0.000023
  C      -2.394281      0.000066     -0.000074
  H       1.684059     -2.162859      0.000141
  H       1.684170      2.162775      0.000102
  H      -0.786831     -2.157708      0.000016
  H      -0.786725      2.157747     -0.000017
  H       3.755422      0.865570     -0.000945
  H       3.755378     -0.865759     -0.000930
