! B3LYP def2-SVP OPT TightSCF ALLPOP KEEPDENS D3BJ

%pal
nprocs 4
end

* xyz 0 1
N          3.25020       -0.00010        0.00000
N         -3.54080        0.00010        0.00000
C          1.83980        0.00000        0.00000
C          1.14220       -1.20800        0.00000
C          1.14240        1.20810        0.00000
C         -0.94990       -0.00010        0.00000
C         -0.25260       -1.20800        0.00000
C         -0.25250        1.20800        0.00000
C         -2.37880        0.00000        0.00000
H          1.67430       -2.15590        0.00010
H          1.67460        2.15600        0.00000
H         -0.78210       -2.15780        0.00000
H         -0.78210        2.15780        0.00000
H          3.75640        0.87540       -0.00060
H          3.75630       -0.87570       -0.00060
*
