19
Coordinates from ORCA-job /home/ys/Research/PSID_server_room/orca/zinc_hydrate_2/zinc_hydrate_2 E -2238.005243859437
  Zn      1.023645      0.910443      1.171163
  H      -0.953425     -0.027195     -0.389543
  O      -0.832467      0.732089      0.204321
  H      -1.605122      0.730290      0.793784
  H       3.654166      1.047328      1.454945
  O       2.910027      1.056408      2.080086
  H       3.064492      1.819373      2.661460
  H       0.608115      2.966810     -0.455882
  O       1.177663      2.829105      0.319513
  H       2.061700      3.128936      0.050586
  H       0.189126     -1.582628      1.728392
  O       0.777856     -0.931795      2.145158
  H       1.596944     -1.413143      2.349516
  H       0.151936      1.392626      3.651794
  O       0.036323      1.812228      2.783313
  H       0.228908      2.754858      2.918222
  H       1.877002     -0.920262     -0.603391
  O       2.027671      0.029583     -0.463624
  H       1.898113      0.444407     -1.332803
19
Coordinates from ORCA-job /home/ys/Research/PSID_server_room/orca/zinc_hydrate_2/zinc_hydrate_2 E -2238.005363021693
  Zn      1.024206      0.909532      1.168943
  H      -0.957078     -0.027130     -0.384381
  O      -0.834758      0.732959      0.204131
  H      -1.604797      0.738559      0.793015
  H       3.654092      1.045570      1.455197
  O       2.911828      1.055721      2.078826
  H       3.064100      1.816222      2.659933
  H       0.608000      2.965765     -0.457161
  O       1.175401      2.829830      0.317145
  H       2.057962      3.130795      0.053314
  H       0.196276     -1.582978      1.730244
  O       0.779392     -0.931435      2.148202
  H       1.597443     -1.406771      2.359238
  H       0.142336      1.386391      3.645372
  O       0.035829      1.812169      2.781375
  H       0.234987      2.750381      2.920475
  H       1.871975     -0.919161     -0.609058
  O       2.028927      0.026694     -0.466333
  H       1.906547      0.446347     -1.331467
19
Coordinates from ORCA-job /home/ys/Research/PSID_server_room/orca/zinc_hydrate_2/zinc_hydrate_2 E -2238.005415389616
  Zn      1.025021      0.908338      1.165887
  H      -0.962305     -0.028666     -0.379182
  O      -0.837766      0.734595      0.203551
  H      -1.606224      0.750454      0.793110
  H       3.656127      1.043143      1.454497
  O       2.914317      1.054365      2.077509
  H       3.063846      1.813294      2.660169
  H       0.606572      2.965097     -0.460617
  O       1.172104      2.831249      0.314490
  H       2.054970      3.134752      0.057280
  H       0.204472     -1.585009      1.731561
  O       0.781249     -0.930773      2.152497
  H       1.600002     -1.399022      2.373146
  H       0.129570      1.377217      3.638739
  O       0.034676      1.812012      2.778690
  H       0.242615      2.746652      2.923713
  H       1.865027     -0.920405     -0.616542
  O       2.030870      0.022564     -0.469770
  H       1.917525      0.449603     -1.331718
19
Coordinates from ORCA-job /home/ys/Research/PSID_server_room/orca/zinc_hydrate_2/zinc_hydrate_2 E -2238.005455880044
  Zn      1.026315      0.906715      1.161483
  H      -0.969541     -0.031153     -0.372471
  O      -0.841641      0.737685      0.202115
  H      -1.608300      0.766360      0.793429
  H       3.659863      1.040777      1.453480
  O       2.917899      1.051571      2.076215
  H       3.063698      1.809257      2.661373
  H       0.605083      2.964472     -0.466196
  O       1.167087      2.833972      0.311941
  H       2.051151      3.141105      0.063428
  H       0.215919     -1.588295      1.732308
  O       0.783475     -0.929528      2.158655
  H       1.604016     -1.388702      2.391229
  H       0.113963      1.365601      3.630414
  O       0.032284      1.811537      2.774798
  H       0.251546      2.742206      2.927851
  H       1.855190     -0.923266     -0.626204
  O       2.034003      0.016459     -0.474126
  H       1.930660      0.452686     -1.332712
19
Coordinates from ORCA-job /home/ys/Research/PSID_server_room/orca/zinc_hydrate_2/zinc_hydrate_2 E -2238.005477153469
  Zn      1.027448      0.905665      1.158213
  H      -0.974144     -0.032674     -0.368127
  O      -0.843798      0.740729      0.200281
  H      -1.609014      0.775988      0.793564
  H       3.662803      1.040602      1.453042
  O       2.920502      1.048502      2.075856
  H       3.063647      1.805824      2.662651
  H       0.605078      2.964212     -0.470197
  O       1.163136      2.836739      0.311612
  H       2.048254      3.146050      0.068403
  H       0.224163     -1.590384      1.731867
  O       0.784587     -0.928205      2.163062
  H       1.606854     -1.381879      2.401479
  H       0.106349      1.359308      3.625288
  O       0.029737      1.810898      2.771862
  H       0.255480      2.739465      2.929821
  H       1.848286     -0.925863     -0.631540
  O       2.036673      0.011839     -0.476561
  H       1.936629      0.452644     -1.333567
19
Coordinates from ORCA-job /home/ys/Research/PSID_server_room/orca/zinc_hydrate_2/zinc_hydrate_2 E -2238.005500227116
  Zn      1.029244      0.904533      1.153923
  H      -0.978547     -0.033674     -0.363705
  O      -0.845483      0.745457      0.196938
  H      -1.608292      0.785070      0.793693
  H       3.666463      1.042277      1.452845
  O       2.923846      1.043271      2.075956
  H       3.063443      1.800329      2.664667
  H       0.606039      2.964155     -0.474293
  O       1.157784      2.841184      0.313190
  H       2.044144      3.152330      0.075146
  H       0.233839     -1.591815      1.730852
  O       0.785466     -0.925871      2.168548
  H       1.610368     -1.374073      2.409892
  H       0.101767      1.354111      3.619735
  O       0.025639      1.809723      2.767955
  H       0.256954      2.736542      2.930388
  H       1.840026     -0.929541     -0.635591
  O       2.040531      0.005780     -0.478661
  H       1.939436      0.449671     -1.334468
19
Coordinates from ORCA-job /home/ys/Research/PSID_server_room/orca/zinc_hydrate_2/zinc_hydrate_2 E -2238.005513451343
  Zn      1.030828      0.904054      1.151097
  H      -0.979302     -0.033189     -0.362569
  O      -0.845293      0.748959      0.193932
  H      -1.605809      0.787093      0.793976
  H       3.668482      1.045209      1.452847
  O       2.926005      1.038778      2.076338
  H       3.062910      1.795412      2.666523
  H       0.606962      2.964308     -0.475210
  O       1.154226      2.844739      0.316124
  H       2.041164      3.155962      0.079567
  H       0.237917     -1.590794      1.730622
  O       0.785670     -0.923703      2.171830
  H       1.612677     -1.370252      2.409730
  H       0.104011      1.353622      3.617128
  O       0.022505      1.808685      2.765371
  H       0.254317      2.735446      2.928300
  H       1.835303     -0.932119     -0.635078
  O       2.043303      0.001901     -0.478951
  H       1.936795      0.445349     -1.334567
19
Coordinates from ORCA-job /home/ys/Research/PSID_server_room/orca/zinc_hydrate_2/zinc_hydrate_2 E -2238.005520034716
  Zn      1.031834      0.904179      1.150111
  H      -0.977162     -0.031923     -0.364308
  O      -0.843855      0.750238      0.192234
  H      -1.602777      0.783810      0.794493
  H       3.668727      1.047885      1.452630
  O       2.926729      1.036341      2.076527
  H       3.062148      1.792261      2.667881
  H       0.606970      2.964415     -0.473435
  O       1.153073      2.846441      0.318883
  H       2.039966      3.156644      0.081007
  H       0.236088     -1.588079      1.731755
  O       0.785596     -0.922309      2.172635
  H       1.613701     -1.370340      2.403612
  H       0.109600      1.356141      3.617164
  O       0.021259      1.808114      2.764530
  H       0.249981      2.736001      2.924911
  H       1.834234     -0.933170     -0.631684
  O       2.044371      0.000744     -0.477985
  H       1.932188      0.442065     -1.333951
19
Coordinates from ORCA-job /home/ys/Research/PSID_server_room/orca/zinc_hydrate_2/zinc_hydrate_2 E -2238.005523598777
  Zn      1.032707      0.904447      1.149661
  H      -0.974313     -0.030735     -0.366893
  O      -0.842095      0.750382      0.191184
  H      -1.599720      0.779667      0.795185
  H       3.668472      1.049794      1.452045
  O       2.927029      1.034920      2.076374
  H       3.061317      1.789897      2.669022
  H       0.605930      2.964516     -0.470594
  O       1.152845      2.847294      0.321179
  H       2.039474      3.156402      0.081294
  H       0.231869     -1.584856      1.734210
  O       0.785697     -0.921249      2.172733
  H       1.614491     -1.371560      2.396363
  H       0.114781      1.358797      3.617790
  O       0.020913      1.807744      2.764233
  H       0.245820      2.737050      2.921319
  H       1.834087     -0.933595     -0.628084
  O       2.044762      0.000490     -0.476899
  H       1.928604      0.440056     -1.333111
19
Coordinates from ORCA-job /home/ys/Research/PSID_server_room/orca/zinc_hydrate_2/zinc_hydrate_2 E -2238.005525687299
  Zn      1.033431      0.904669      1.149341
  H      -0.972124     -0.030204     -0.368982
  O      -0.840625      0.749893      0.190570
  H      -1.597256      0.776835      0.795851
  H       3.668158      1.050799      1.451243
  O       2.927158      1.034239      2.075961
  H       3.060558      1.788331      2.669832
  H       0.604487      2.964477     -0.467968
  O       1.152968      2.847634      0.322713
  H       2.039335      3.156078      0.081257
  H       0.227596     -1.582144      1.737340
  O       0.786025     -0.920481      2.172784
  H       1.615256     -1.372671      2.390642
  H       0.117708      1.360391      3.618145
  O       0.020982      1.807525      2.764055
  H       0.243145      2.737838      2.918570
  H       1.833667     -0.933711     -0.625779
  O       2.044854      0.000459     -0.476161
  H       1.927346      0.439501     -1.332403
19
Coordinates from ORCA-job /home/ys/Research/PSID_server_room/orca/zinc_hydrate_2/zinc_hydrate_2 E -2238.005526532967
  Zn      1.033963      0.904708      1.148873
  H      -0.971623     -0.030574     -0.369451
  O      -0.839929      0.749438      0.190171
  H      -1.595931      0.776706      0.796240
  H       3.668136      1.050962      1.450642
  O       2.927310      1.033962      2.075558
  H       3.060101      1.787619      2.670121
  H       0.603524      2.964295     -0.466730
  O       1.152948      2.847832      0.323361
  H       2.039199      3.156290      0.081498
  H       0.225538     -1.580932      1.739865
  O       0.786460     -0.919996      2.173206
  H       1.616034     -1.372769      2.388556
  H       0.117574      1.360264      3.617785
  O       0.020930      1.807364      2.763672
  H       0.242619      2.737908      2.917473
  H       1.832299     -0.933695     -0.625688
  O       2.044999      0.000135     -0.476075
  H       1.928521      0.439943     -1.332065
