19
Coordinates from ORCA-job 4nitroaniline_water_2_OPT E -567.856141948010
  O           2.85158021189090      0.72116383932099      0.93669684457977
  O           2.74889331127532     -0.98378534730152     -0.39627145918123
  N           2.23478457022613     -0.05416082104680      0.21547069135395
  N          -3.31052168884671      0.68595961702258     -0.33447561694322
  C           0.79858834261178      0.14100807640490      0.07581590589377
  C          -1.97062207010777      0.51734193096954     -0.19424561365072
  C           0.17140013102652      1.18917285753145      0.75924283770998
  C           0.05907853939682     -0.72230014742790     -0.74141726565313
  C          -1.19507818988006      1.37537680462504      0.62662762376282
  C          -1.30618114847648     -0.53731079011991     -0.87499127949994
  H           0.77561510089522      1.84351869230378      1.38713379585454
  H           0.57798874517260     -1.52828031728509     -1.25966677303559
  H          -1.68660639344558      2.19342097705665      1.15975354078393
  H          -1.89965862100775     -1.19947122093412     -1.50695278917903
  H          -3.78178278668773      1.43969749434440      0.14415067162822
  H          -3.84539781053247      0.06102717386685     -0.93599606209839
  O          -4.42066748767761     -1.33529686267791     -2.14728665782168
  H          -4.29220942337257     -2.24534897258145     -1.84469042742458
  H          -4.03276386186040     -1.31897910137148     -3.03356966777938
