! B3LYP def2-SVP OPT TightSCF D3BJ


%maxcore 4000

%pal
nprocs 28
end

* xyz 0 1
  O           2.77197947055358      0.93195919481847      0.30590397299431
  O           2.60994964368795     -1.13439585293963     -0.32369087682596
  N           2.12528465800100     -0.05523003169394     -0.01418677291437
  N          -3.50049763395172      0.40658033316329     -0.11506569195536
  C           0.66485266499292      0.06366568346840     -0.02876267451783
  C          -2.11638190487905      0.28674828637602     -0.05100274746487
  C           0.07282578909238      1.27840950125833      0.32161579579670
  C          -0.11153570148182     -1.03951562499899     -0.39482108669325
  C          -1.31257148780720      1.38658461107914      0.30926215314232
  C          -1.49481367813430     -0.93008098013537     -0.40929454864828
  H           0.70657561273653      2.11870606750171      0.60276638713747
  H           0.38790657120091     -1.96926879671497     -0.66619242356838
  H          -1.78429889604867      2.33302625997809      0.58614089176984
  H          -2.11574448869050     -1.76720839946438     -0.73179771753918
  H          -3.90015252290899      1.20128723113281      0.36477357167189
  H          -4.02600923174279     -0.44825245705539      0.03505936748910
  O          -3.76261757732187     -1.10941962988160     -2.61011713754425
  H          -2.90456824228863     -1.02397488912309     -3.04707921417765
  H          -3.83374357440966     -0.28686662406889     -2.09818294885220               
*           

