! B3LYP def2-SVP SP TightSCF ALLPOP KEEPDENS 

%maxcore 5000

%pal
nprocs 20
end

* xyz 0 1
  O           2.64276363203394     -0.36922886813941      1.36897212589755
  O           2.71556354576100     -0.26564936271740     -0.79361452746234
  N           2.14023461264676     -0.14025155988384      0.27805691078743
  N          -3.20696122458547      1.65604073672937      0.18449779788922
  C           0.74804487449118      0.31645601812729      0.25295466021850
  C          -1.90582775047450      1.18030004721936      0.20518053929643
  C           0.05444704690148      0.46944984763939      1.45572280954139
  C           0.13696174146160      0.58825649988408     -0.97347227918619
  C          -1.26545771510373      0.89911930409019      1.43037845046782
  C          -1.18298993656182      1.01819298334316     -0.99537127884757
  H           0.56323373134737      0.24577329987281      2.39282270375262
  H           0.70888279604556      0.45525942531379     -1.89122266226497
  H          -1.81533860404831      1.02315117785936      2.36666997696382
  H          -1.66732008775231      1.23694405067902     -1.95033667535675
  H          -3.77666105079663      1.47793567837986      1.00576210993153
  H          -3.72193946782008      1.55608456393310     -0.68450536760096
  O          -4.25764196823015      4.40021123706916      0.47828364099294
  H          -3.66213047575637      3.64128597630219      0.35535325728113
  H          -3.66035667415949      5.15920666159849      0.50727112439841
*
