! B3LYP def2-SVP SP TightSCF ALLPOP KEEPDENS

%maxcore 5000

%pal
nprocs 20
end

* xyz 0 1
  O           0.94722698248540     -0.03475565798934     -0.06129533292316
  H           1.91263251889642     -0.06131061111867     -0.10813162840666
  H           0.67617049861818     -0.49254373089199     -0.86870303867018
*
