19
Coordinates from ORCA-job zinc_hydrate_1 E -2236.951355251434
  Zn      1.019941      0.909297      1.131210
  H      -1.022921     -0.104535     -0.268315
  O      -0.877154      0.707955      0.247464
  H      -1.607401      0.731775      0.889305
  H       3.649463      1.005491      1.510871
  O       2.881431      1.032602      2.105485
  H       3.029729      1.797626      2.686182
  H       0.689650      2.994908     -0.508250
  O       1.163120      2.857355      0.329321
  H       2.061302      3.196713      0.176367
  H       0.205565     -1.599631      1.695490
  O       0.808002     -0.944408      2.084081
  H       1.631511     -1.425515      2.268430
  H       0.202470      1.481608      3.630441
  O       0.017409      1.827162      2.742340
  H       0.189510      2.782905      2.793738
  H       1.860387     -0.925889     -0.622453
  O       2.036991      0.018696     -0.475241
  H       1.953666      0.435343     -1.349457
19
Coordinates from ORCA-job zinc_hydrate_1 E -2236.951406385937
  Zn      1.019859      0.907818      1.133255
  H      -1.017287     -0.091865     -0.285268
  O      -0.875160      0.710185      0.245139
  H      -1.606052      0.725756      0.886308
  H       3.649509      1.017463      1.503758
  O       2.883726      1.033615      2.102045
  H       3.028949      1.793474      2.689946
  H       0.683775      2.994407     -0.502727
  O       1.164701      2.854281      0.330320
  H       2.062702      3.189203      0.169508
  H       0.208910     -1.603944      1.695549
  O       0.805734     -0.945800      2.088479
  H       1.629535     -1.422678      2.283720
  H       0.201423      1.479778      3.633145
  O       0.019628      1.827747      2.744482
  H       0.192307      2.782765      2.797353
  H       1.854777     -0.926505     -0.624078
  O       2.034024      0.017081     -0.475585
  H       1.951609      0.436682     -1.348341
19
Coordinates from ORCA-job zinc_hydrate_1 E -2236.951482123568
  Zn      1.019972      0.903451      1.140586
  H      -0.999848     -0.056387     -0.335360
  O      -0.867209      0.716336      0.237017
  H      -1.601362      0.708032      0.873789
  H       3.649078      1.049861      1.483663
  O       2.890975      1.038439      2.091935
  H       3.029174      1.786168      2.696613
  H       0.665771      2.993224     -0.483640
  O       1.169940      2.844842      0.334094
  H       2.067508      3.166830      0.148345
  H       0.215271     -1.613098      1.700975
  O       0.799456     -0.949436      2.103317
  H       1.622763     -1.417277      2.321208
  H       0.195116      1.472908      3.639971
  O       0.025842      1.828642      2.751590
  H       0.201303      2.782300      2.811265
  H       1.841318     -0.928612     -0.627042
  O       2.025757      0.013299     -0.476169
  H       1.941846      0.439938     -1.345148
19
Coordinates from ORCA-job zinc_hydrate_1 E -2236.951503591491
  Zn      1.020426      0.901984      1.144473
  H      -0.992895     -0.045826     -0.352000
  O      -0.862006      0.718557      0.232126
  H      -1.599541      0.704346      0.864721
  H       3.649398      1.057588      1.477151
  O       2.894021      1.041943      2.088632
  H       3.031444      1.788964      2.694410
  H       0.656857      2.993689     -0.473438
  O       1.172858      2.841155      0.336011
  H       2.069675      3.157426      0.137168
  H       0.214758     -1.613886      1.705986
  O       0.797097     -0.950019      2.110515
  H       1.620090     -1.417365      2.330324
  H       0.188809      1.467458      3.642478
  O       0.027655      1.828080      2.754755
  H       0.205700      2.780932      2.820078
  H       1.839605     -0.929094     -0.626570
  O       2.023613      0.012959     -0.475889
  H       1.935107      0.440568     -1.343921
19
Coordinates from ORCA-job zinc_hydrate_1 E -2236.951547503124
  Zn      1.022036      0.899232      1.154543
  H      -0.977592     -0.029724     -0.381582
  O      -0.847207      0.722980      0.218569
  H      -1.596036      0.704829      0.837651
  H       3.651276      1.064961      1.465123
  O       2.900836      1.051922      2.082543
  H       3.039810      1.804486      2.681177
  H       0.634867      2.996057     -0.447052
  O       1.180483      2.833207      0.340452
  H       2.073753      3.136304      0.107781
  H       0.209296     -1.611040      1.720262
  O       0.791924     -0.949602      2.128300
  H       1.614395     -1.420254      2.342718
  H       0.169134      1.450334      3.647725
  O       0.030560      1.824767      2.762343
  H       0.216037      2.774989      2.845002
  H       1.842069     -0.929282     -0.623033
  O       2.020985      0.014231     -0.474437
  H       1.916043      0.441065     -1.341076
19
Coordinates from ORCA-job zinc_hydrate_1 E -2236.951568326945
  Zn      1.023172      0.898540      1.160448
  H      -0.970852     -0.028640     -0.389128
  O      -0.838037      0.724575      0.210295
  H      -1.595416      0.713317      0.819300
  H       3.653223      1.059857      1.461598
  O       2.904049      1.058218      2.080663
  H       3.046572      1.819137      2.667801
  H       0.623754      2.997097     -0.433694
  O       1.184563      2.829929      0.342103
  H       2.074699      3.127628      0.091243
  H       0.203605     -1.605478      1.728642
  O       0.789465     -0.947540      2.137976
  H       1.611785     -1.422817      2.343043
  H       0.155715      1.437074      3.649917
  O       0.031144      1.821031      2.766616
  H       0.221246      2.769199      2.861798
  H       1.849054     -0.928611     -0.618947
  O       2.021510      0.016628     -0.473044
  H       1.903420      0.440317     -1.339618
19
Coordinates from ORCA-job zinc_hydrate_1 E -2236.951580151601
  Zn      1.023664      0.899142      1.162822
  H      -0.970388     -0.035076     -0.383881
  O      -0.834571      0.724282      0.207100
  H      -1.597076      0.724130      0.809996
  H       3.654588      1.050821      1.462893
  O       2.904765      1.060849      2.081132
  H       3.050821      1.828530      2.658489
  H       0.621933      2.995479     -0.432944
  O       1.185420      2.829891      0.341304
  H       2.074064      3.128787      0.086750
  H       0.199624     -1.599654      1.731268
  O       0.788856     -0.944859      2.141101
  H       1.611185     -1.423665      2.338381
  H       0.149715      1.428120      3.650172
  O       0.030703      1.817622      2.768435
  H       0.222383      2.764692      2.870836
  H       1.856926     -0.927736     -0.615401
  O       2.023293      0.019034     -0.472117
  H       1.896765      0.439073     -1.339327
19
Coordinates from ORCA-job zinc_hydrate_1 E -2236.951587294011
  Zn      1.023800      0.900038      1.163852
  H      -0.971184     -0.041065     -0.377168
  O      -0.833817      0.723639      0.206285
  H      -1.599519      0.733442      0.805054
  H       3.655349      1.044895      1.464416
  O       2.904876      1.061395      2.081791
  H       3.053173      1.832251      2.654294
  H       0.623005      2.992185     -0.437175
  O       1.185014      2.830618      0.339080
  H       2.072896      3.132675      0.085679
  H       0.197330     -1.594666      1.731173
  O       0.788590     -0.942180      2.141946
  H       1.610891     -1.422782      2.335294
  H       0.147961      1.421178      3.649823
  O       0.030578      1.814710      2.769553
  H       0.222297      2.761157      2.876723
  H       1.863372     -0.927088     -0.612742
  O       2.024850      0.020871     -0.471534
  H       1.893208      0.438187     -1.339335
19
Coordinates from ORCA-job zinc_hydrate_1 E -2236.951592816761
  Zn      1.023794      0.900836      1.164876
  H      -0.970606     -0.043417     -0.374310
  O      -0.833789      0.723498      0.206104
  H      -1.602023      0.739697      0.801346
  H       3.655707      1.044302      1.464115
  O       2.905389      1.060962      2.081694
  H       3.054422      1.831408      2.654550
  H       0.623563      2.987784     -0.442062
  O       1.184468      2.830854      0.335987
  H       2.071582      3.135573      0.083174
  H       0.196199     -1.590551      1.730355
  O       0.787848     -0.939591      2.142985
  H       1.609972     -1.420623      2.336035
  H       0.147998      1.414585      3.649532
  O       0.031322      1.812318      2.770989
  H       0.222683      2.758256      2.882658
  H       1.867719     -0.926585     -0.610918
  O       2.025626      0.022144     -0.471056
  H       1.890796      0.438009     -1.339043
19
Coordinates from ORCA-job zinc_hydrate_1 E -2236.951596905580
  Zn      1.023707      0.901471      1.166034
  H      -0.968074     -0.040987     -0.376976
  O      -0.834062      0.724152      0.206254
  H      -1.604058      0.740607      0.799008
  H       3.655709      1.049223      1.461848
  O       2.906437      1.059791      2.080807
  H       3.054699      1.826391      2.658976
  H       0.622585      2.983088     -0.445850
  O       1.184102      2.830324      0.332537
  H       2.070374      3.136029      0.078190
  H       0.196021     -1.587887      1.729568
  O       0.786540     -0.937437      2.144594
  H       1.608326     -1.417876      2.340438
  H       0.149255      1.409242      3.649524
  O       0.032877      1.811093      2.772753
  H       0.223899      2.756624      2.888508
  H       1.868895     -0.926113     -0.610380
  O       2.025473      0.022785     -0.470576
  H       1.889963      0.438938     -1.338247
19
Coordinates from ORCA-job zinc_hydrate_1 E -2236.951599022919
  Zn      1.023628      0.902018      1.167356
  H      -0.964559     -0.036135     -0.382557
  O      -0.833972      0.725337      0.206185
  H      -1.605216      0.737684      0.797233
  H       3.655633      1.055710      1.458934
  O       2.907766      1.058731      2.079664
  H       3.054912      1.820803      2.664085
  H       0.620264      2.979004     -0.447869
  O       1.183939      2.829293      0.329568
  H       2.069506      3.134451      0.072013
  H       0.195885     -1.586351      1.729751
  O       0.785019     -0.935920      2.146643
  H       1.606309     -1.415902      2.345364
  H       0.150118      1.405396      3.649628
  O       0.034544      1.811012      2.774576
  H       0.225795      2.755963      2.894217
  H       1.868136     -0.925499     -0.610617
  O       2.024896      0.023251     -0.469985
  H       1.890068      0.440613     -1.337180
19
Coordinates from ORCA-job zinc_hydrate_1 E -2236.951600389726
  Zn      1.023544      0.902640      1.168211
  H      -0.961774     -0.031793     -0.387289
  O      -0.834018      0.726464      0.206316
  H      -1.605663      0.732900      0.796913
  H       3.655558      1.060141      1.457047
  O       2.908736      1.057787      2.079012
  H       3.055212      1.816536      2.667926
  H       0.618303      2.976039     -0.449239
  O       1.183570      2.828506      0.327440
  H       2.068777      3.132644      0.067422
  H       0.195467     -1.585811      1.730352
  O       0.783877     -0.935142      2.147877
  H       1.604724     -1.415163      2.348263
  H       0.150859      1.403791      3.649744
  O       0.035641      1.811882      2.775831
  H       0.227322      2.756430      2.898057
  H       1.866570     -0.924628     -0.611313
  O       2.024458      0.023742     -0.469375
  H       1.891506      0.442494     -1.336184
19
Coordinates from ORCA-job zinc_hydrate_1 E -2236.951601892581
  Zn      1.023434      0.903599      1.168762
  H      -0.959703     -0.028853     -0.390114
  O      -0.834238      0.727484      0.206600
  H      -1.605855      0.727863      0.797352
  H       3.655577      1.061163      1.456370
  O       2.909348      1.056850      2.078985
  H       3.056093      1.814029      2.669839
  H       0.616836      2.973299     -0.451050
  O       1.182700      2.828089      0.325599
  H       2.067803      3.131326      0.064215
  H       0.194440     -1.585505      1.731163
  O       0.782993     -0.934672      2.148274
  H       1.603413     -1.415314      2.348992
  H       0.151694      1.403274      3.649879
  O       0.036155      1.813223      2.776848
  H       0.228136      2.757502      2.901077
  H       1.865364     -0.923251     -0.612012
  O       2.024437      0.024691     -0.468585
  H       1.894042      0.444664     -1.335183
19
Coordinates from ORCA-job zinc_hydrate_1 E -2236.951603032116
  Zn      1.023297      0.905288      1.169651
  H      -0.956882     -0.025914     -0.392689
  O      -0.834268      0.728893      0.206661
  H      -1.606154      0.722456      0.797169
  H       3.655770      1.059539      1.456019
  O       2.910043      1.055828      2.079280
  H       3.058154      1.812630      2.670304
  H       0.614521      2.969577     -0.453588
  O       1.181289      2.827781      0.323050
  H       2.066151      3.129796      0.059428
  H       0.192340     -1.584457      1.732398
  O       0.781720     -0.933756      2.148617
  H       1.601585     -1.415517      2.349062
  H       0.152282      1.401607      3.650103
  O       0.036557      1.814622      2.778517
  H       0.229032      2.758310      2.906212
  H       1.865267     -0.921126     -0.612147
  O       2.024816      0.026511     -0.467237
  H       1.897151      0.447390     -1.333800
19
Coordinates from ORCA-job zinc_hydrate_1 E -2236.951603776032
  Zn      1.023280      0.906172      1.169965
  H      -0.956239     -0.026436     -0.391866
  O      -0.834043      0.729330      0.206364
  H      -1.606219      0.722826      0.796529
  H       3.655875      1.055848      1.456571
  O       2.910052      1.055747      2.079737
  H       3.059606      1.814270      2.668184
  H       0.613549      2.968624     -0.454355
  O       1.180556      2.827990      0.322344
  H       2.065293      3.129678      0.057902
  H       0.191229     -1.583796      1.732560
  O       0.781272     -0.933364      2.148268
  H       1.600996     -1.415593      2.348190
  H       0.152164      1.400387      3.650272
  O       0.036330      1.814600      2.779250
  H       0.228811      2.758078      2.908382
  H       1.866982     -0.920311     -0.611255
  O       2.025392      0.027557     -0.466586
  H       1.897786      0.447852     -1.333446
19
Coordinates from ORCA-job zinc_hydrate_1 E -2236.951604885466
  Zn      1.023310      0.907972      1.170473
  H      -0.955537     -0.028945     -0.388645
  O      -0.833335      0.730048      0.205409
  H      -1.606149      0.726838      0.794762
  H       3.655844      1.046585      1.457984
  O       2.909766      1.056026      2.080758
  H       3.062769      1.819315      2.662063
  H       0.611537      2.967702     -0.455180
  O       1.179076      2.828698      0.321468
  H       2.063541      3.129857      0.055461
  H       0.189276     -1.582598      1.732091
  O       0.780427     -0.932701      2.147003
  H       1.599983     -1.415436      2.346311
  H       0.151697      1.397435      3.650743
  O       0.035592      1.813742      2.780714
  H       0.227780      2.756911      2.912348
  H       1.872170     -0.919178     -0.608331
  O       2.026838      0.029569     -0.465314
  H       1.898085      0.447620     -1.333107
19
Coordinates from ORCA-job zinc_hydrate_1 E -2236.951605238233
  Zn      1.023333      0.908331      1.170503
  H      -0.955250     -0.028701     -0.388709
  O      -0.833317      0.730324      0.205327
  H      -1.606027      0.727420      0.794799
  H       3.655581      1.046567      1.457624
  O       2.909743      1.055980      2.080703
  H       3.062951      1.819207      2.662046
  H       0.611083      2.967568     -0.455382
  O       1.178799      2.828786      0.321179
  H       2.063234      3.129757      0.054854
  H       0.189317     -1.582699      1.731459
  O       0.780088     -0.932615      2.146601
  H       1.599601     -1.415013      2.346879
  H       0.152008      1.396874      3.650910
  O       0.035681      1.813517      2.781068
  H       0.227772      2.756672      2.912972
  H       1.872880     -0.919316     -0.607647
  O       2.026957      0.029589     -0.465092
  H       1.898236      0.447210     -1.333084
19
Coordinates from ORCA-job zinc_hydrate_1 E -2236.951605827872
  Zn      1.023542      0.910139      1.171069
  H      -0.953583     -0.027604     -0.389268
  O      -0.832583      0.731832      0.204379
  H      -1.605326      0.730412      0.793733
  H       3.654438      1.046004      1.455668
  O       2.909897      1.056257      2.080325
  H       3.064468      1.819821      2.660902
  H       0.608271      2.966968     -0.455587
  O       1.177749      2.829064      0.319830
  H       2.061815      3.128849      0.050935
  H       0.189173     -1.582719      1.728888
  O       0.778236     -0.931967      2.145312
  H       1.597435     -1.413286      2.349281
  H       0.152182      1.393231      3.651731
  O       0.036111      1.812332      2.783049
  H       0.228331      2.755123      2.917420
  H       1.876786     -0.919899     -0.603975
  O       2.027616      0.029855     -0.463842
  H       1.898114      0.445050     -1.332840
19
Coordinates from ORCA-job zinc_hydrate_1 E -2236.951605955974
  Zn      1.023645      0.910443      1.171163
  H      -0.953425     -0.027195     -0.389543
  O      -0.832467      0.732089      0.204321
  H      -1.605122      0.730290      0.793784
  H       3.654166      1.047328      1.454945
  O       2.910027      1.056408      2.080086
  H       3.064492      1.819373      2.661460
  H       0.608115      2.966810     -0.455882
  O       1.177663      2.829105      0.319513
  H       2.061700      3.128936      0.050586
  H       0.189126     -1.582628      1.728392
  O       0.777856     -0.931795      2.145158
  H       1.596944     -1.413143      2.349516
  H       0.151936      1.392626      3.651794
  O       0.036323      1.812228      2.783313
  H       0.228908      2.754858      2.918222
  H       1.877002     -0.920262     -0.603391
  O       2.027671      0.029583     -0.463624
  H       1.898113      0.444407     -1.332803
