! B3LYP def2-SVP Opt TightSCF ALLPOP KEEPDENS D3BJ CPCM(WATER)

%pal
nprocs 30
end

* xyz 2 1
Zn         1.00193        0.97190        1.15225
H         -0.43578        0.00828        0.58118
O         -0.66189        0.92869        0.37719
H         -1.63102        0.95976        0.45168
H          2.64838        0.21573        1.29018
O          2.75994        0.89183        1.98181
H          3.52039        1.41362        1.68939
H          1.00134        2.95720       -0.65059
O          0.94780        2.67589        0.32453
H          1.85358        2.67106        0.66631
H          1.06390       -1.50572        2.04945
O          1.15830       -0.61680        2.43366
H          1.96617       -0.64591        2.97426
H         -0.58812        1.06554        3.08543
O         -0.34318        1.74954        2.43690
H          0.10842        2.45270        2.94433
H          1.23277       -0.24127       -1.28399
O          1.66947        0.39007       -0.62760
H          2.62027        0.43735       -0.80936
*
