17
Coordinates from ORCA-job p_toluidine_2 E -326.500729125263
  N      -2.815400      0.000300     -0.000100
  C       1.384800      0.000000     -0.000100
  C      -1.405000     -0.000200      0.000000
  C       0.687400     -1.208000      0.000000
  C       0.687300      1.207900      0.000000
  C      -0.707500     -1.208100      0.000100
  C      -0.707600      1.207800      0.000100
  C       2.876100      0.000200      0.000000
  H       1.219500     -2.155600     -0.001800
  H       1.219300      2.155600     -0.001800
  H      -1.239500     -2.156000     -0.000300
  H      -1.239700      2.155800     -0.000300
  H       3.271000      0.879100      0.520900
  H       3.271500     -0.881600      0.515500
  H       3.251800      0.003300     -1.027900
  H      -3.321300      0.875900     -0.000900
  H      -3.321900     -0.875100     -0.000900
17
Coordinates from ORCA-job p_toluidine_2 E -326.503252015642
  N      -2.822028      0.000180     -0.008122
  C       1.393069     -0.000049      0.014856
  C      -1.433029     -0.000091     -0.003248
  C       0.676399     -1.203557      0.011798
  C       0.676406      1.203473      0.011200
  C      -0.720978     -1.208860      0.001769
  C      -0.720947      1.208723      0.001167
  C       2.903702      0.000068     -0.005388
  H       1.210661     -2.157089      0.015920
  H       1.210653      2.157021      0.014849
  H      -1.256154     -2.162406      0.001515
  H      -1.256090      2.162290      0.000440
  H       3.312304      0.884029      0.508823
  H       3.312806     -0.888672      0.500074
  H       3.283029      0.005691     -1.042406
  H      -3.329341      0.870287     -0.010591
  H      -3.329661     -0.869737     -0.010154
17
Coordinates from ORCA-job p_toluidine_2 E -326.503744077859
  N      -2.825305      0.000093     -0.012328
  C       1.400954     -0.000060      0.019225
  C      -1.449238     -0.000009     -0.003713
  C       0.671600     -1.197998      0.015934
  C       0.671647      1.197960      0.015175
  C      -0.723985     -1.207485      0.003758
  C      -0.723886      1.207480      0.002976
  C       2.914851      0.000066     -0.008044
  H       1.206170     -2.153056      0.024641
  H       1.206251      2.153012      0.023290
  H      -1.259471     -2.161848      0.004811
  H      -1.259312      2.161863      0.003418
  H       3.327886      0.886493      0.500128
  H       3.328095     -0.891735      0.490313
  H       3.299734      0.006248     -1.044464
  H      -3.337520      0.868240     -0.016593
  H      -3.337671     -0.867964     -0.016026
17
Coordinates from ORCA-job p_toluidine_2 E -326.503799156256
  N      -2.827107      0.000071     -0.013175
  C       1.404067     -0.000036      0.019057
  C      -1.450868      0.000009     -0.003549
  C       0.671744     -1.196170      0.016376
  C       0.671772      1.196178      0.015641
  C      -0.722175     -1.206462      0.004628
  C      -0.722095      1.206498      0.003869
  C       2.915160      0.000109     -0.008348
  H       1.205937     -2.151390      0.025594
  H       1.205988      2.151397      0.024280
  H      -1.258133     -2.160302      0.006241
  H      -1.258022      2.160355      0.004884
  H       3.328183      0.887165      0.497963
  H       3.328199     -0.892386      0.488169
  H       3.302391      0.006064     -1.043543
  H      -3.342073      0.867121     -0.018073
  H      -3.342166     -0.866922     -0.017516
17
Coordinates from ORCA-job p_toluidine_2 E -326.503806893236
  N      -2.827023      0.000065     -0.012487
  C       1.405821     -0.000010      0.017715
  C      -1.451269      0.000017     -0.003426
  C       0.672196     -1.195435      0.015369
  C       0.672198      1.195481      0.014695
  C      -0.721091     -1.205749      0.004449
  C      -0.721038      1.205808      0.003773
  C       2.914410      0.000150     -0.007682
  H       1.205916     -2.150877      0.024494
  H       1.205925      2.150929      0.023292
  H      -1.257747     -2.159096      0.006527
  H      -1.257691      2.159159      0.005319
  H       3.326758      0.887641      0.497989
  H       3.326648     -0.892653      0.488547
  H       3.304293      0.005704     -1.041713
  H      -3.343720      0.865711     -0.017425
  H      -3.343787     -0.865544     -0.016935
17
Coordinates from ORCA-job p_toluidine_2 E -326.503807576374
  N      -2.826765      0.000067     -0.012126
  C       1.405768     -0.000003      0.017509
  C      -1.450746      0.000016     -0.003366
  C       0.672399     -1.195614      0.015190
  C       0.672395      1.195667      0.014535
  C      -0.720948     -1.205740      0.004327
  C      -0.720903      1.205799      0.003670
  C       2.914123      0.000151     -0.007489
  H       1.205972     -2.151091      0.024032
  H       1.205971      2.151152      0.022858
  H      -1.257877     -2.158932      0.006319
  H      -1.257836      2.158992      0.005143
  H       3.326442      0.887631      0.498239
  H       3.326332     -0.892596      0.488897
  H       3.304386      0.005632     -1.041428
  H      -3.343923      0.865654     -0.017143
  H      -3.343990     -0.865483     -0.016667
