40
Coordinates from ORCA-job honokiol_o2_11 E -996.553015781015
  O           0.20400624386655      2.03105108728556     -1.84443974985470
  O          -4.04758657551042     -1.43950854058847      1.26009246980124
  C           1.04855990155750      0.44322208764627     -0.27110214581800
  C          -0.30468415097305     -0.00784078396742      0.12630408078104
  C          -2.59340278409941     -0.67690999832965     -0.43645711830103
  C          -1.34468472116018     -0.19765697561192     -0.80273855102143
  C           3.49671044639128      0.29458871155454      0.03249190593335
  C           2.18854260303632     -0.10612053307091      0.33086553631566
  C           1.27429860369609      1.45099095004663     -1.24079345428156
  C          -0.59240940276761     -0.32044267540922      1.46870712323583
  C          -2.88839442732721     -0.99479082631382      0.93251018550786
  C          -3.70811471551364     -0.85040131850740     -1.44271545409263
  C           4.67431803938824     -0.35464192435656      0.73451407791526
  C           3.67830703536069      1.28279898629413     -0.93116061527197
  C          -1.83067281745742     -0.79434521087881      1.86742509135083
  C           2.57061179367749      1.85170298202508     -1.56092476342021
  C          -4.62437221861474      0.34651312454640     -1.46421141161281
  C           4.73806041815310     -1.84188613355885      0.51969992619103
  C          -5.82728269936706      0.40083978710490     -0.89260278802764
  C           4.73158286717021     -2.76064524692506      1.48516838239108
  H          -1.16091771586860      0.02549929207013     -1.85800760764456
  H           2.03680183235597     -0.90742327250381      1.06035073319125
  H           0.17987899432886     -0.16464749859403      2.23073488275162
  H          -3.28137446799317     -1.00094089103469     -2.44963497126329
  H          -4.28913482759688     -1.74526069179231     -1.17233629019276
  H           5.60568438149748      0.10282549267772      0.35788569142916
  H           4.63632346666336     -0.14508652090865      1.81722547962769
  H           4.68574251562227      1.61596634946999     -1.19996590749858
  H          -2.04351372151773     -1.02404958311049      2.91649718067326
  H           2.71425212520736      2.63561595279662     -2.31394154034947
  H          -4.21896647816014      1.24707858004847     -1.94665665654190
  H           4.76891005873926     -2.16675207280313     -0.52839386550456
  H           0.52313241702669      2.71702099734835     -2.43692646469056
  H          -4.37479898587664     -1.71686799129595      2.57238251894095
  H          -6.42514365999596      1.31776249640776     -0.90352511709048
  H          -6.22456740449991     -0.46137522771443     -0.34870700955599
  H           4.76449697679949     -3.82974087689290      1.25853018215849
  H           4.67790680535897     -2.47686350381472      2.54175443309380
  O          -3.74465437676214     -1.80997173796415      4.39654989954555
  O          -4.72498537483523     -1.98290884137519      3.56238270119916
