17
Coordinates from ORCA-job aninline_water_2 E -363.576406476492
  N      -2.375890      3.300555      0.544780
  C      -1.006288      3.321421      0.310230
  C      -0.360987      4.532383     -0.025027
  C      -0.215665      2.161448      0.428953
  C       1.014163      4.567208     -0.256598
  C       1.162201      2.210404      0.211269
  C       1.789368      3.408325     -0.142342
  H      -0.950410      5.452441     -0.065209
  H      -0.692548      1.212583      0.692107
  H       1.489197      5.517807     -0.514499
  H       1.750940      1.294299      0.310854
  H       2.866646      3.440723     -0.318591
  H      -2.765929      2.369717      0.641948
  H      -2.901523      3.861676     -0.123458
  O      -2.631902      4.450722     -2.184109
  H      -2.489361      3.524135     -2.420250
  H      -1.727002      4.772502     -2.062369
17
Coordinates from ORCA-job aninline_water_2 E -363.576467982611
  N      -2.373623      3.296933      0.544793
  C      -1.003593      3.317587      0.310012
  C      -0.358204      4.529416     -0.024781
  C      -0.210833      2.159663      0.435015
  C       1.016868      4.564655     -0.256557
  C       1.166800      2.209323      0.217613
  C       1.792921      3.406564     -0.140915
  H      -0.947008      5.450977     -0.062055
  H      -0.687203      1.211092      0.700378
  H       1.491163      5.515520     -0.514914
  H       1.756369      1.294137      0.320309
  H       2.870110      3.439474     -0.317382
  H      -2.764996      2.365187      0.640679
  H      -2.903895      3.860958     -0.121358
  O      -2.645610      4.461095     -2.194033
  H      -2.505935      3.534357     -2.436588
  H      -1.738322      4.781411     -2.072527
17
Coordinates from ORCA-job aninline_water_2 E -363.576507902073
  N      -2.370025      3.293029      0.543752
  C      -1.000106      3.312879      0.310148
  C      -0.355640      4.524984     -0.026254
  C      -0.205316      2.157139      0.441253
  C       1.019462      4.561366     -0.257193
  C       1.172162      2.207942      0.224810
  C       1.797193      3.404837     -0.137584
  H      -0.943931      5.446552     -0.061816
  H      -0.681202      1.209072      0.709496
  H       1.492352      5.512547     -0.517051
  H       1.762952      1.294096      0.332070
  H       2.874396      3.438674     -0.313621
  H      -2.764187      2.361817      0.637633
  H      -2.903521      3.859684     -0.117898
  O      -2.661618      4.473668     -2.203477
  H      -2.524975      3.548390     -2.454389
  H      -1.752985      4.791675     -2.082189
17
Coordinates from ORCA-job aninline_water_2 E -363.576540329211
  N      -2.365544      3.288439      0.541626
  C      -0.996118      3.307585      0.310376
  C      -0.353508      4.519441     -0.029832
  C      -0.199554      2.153900      0.447330
  C       1.021918      4.557660     -0.258281
  C       1.178022      2.206473      0.232923
  C       1.801770      3.403153     -0.132945
  H      -0.942422      5.439894     -0.066477
  H      -0.674835      1.206437      0.718848
  H       1.493012      5.509034     -0.520777
  H       1.770323      1.294227      0.345353
  H       2.879125      3.438218     -0.307686
  H      -2.763733      2.358822      0.633768
  H      -2.900589      3.858614     -0.114563
  O      -2.678623      4.487999     -2.210868
  H      -2.544926      3.565325     -2.471806
  H      -1.769308      4.803129     -2.089300
17
Coordinates from ORCA-job aninline_water_2 E -363.576572130178
  N      -2.360946      3.282747      0.537636
  C      -0.991995      3.301886      0.309793
  C      -0.351785      4.513128     -0.035919
  C      -0.193788      2.150191      0.453314
  C       1.024233      4.553655     -0.260346
  C       1.184123      2.205072      0.241856
  C       1.806394      3.401544     -0.127414
  H      -0.942860      5.431519     -0.077202
  H      -0.668168      1.203374      0.728507
  H       1.493472      5.504964     -0.526418
  H       1.778169      1.294660      0.359971
  H       2.884113      3.438094     -0.299536
  H      -2.763788      2.355383      0.628835
  H      -2.895605      3.858083     -0.112802
  O      -2.695772      4.503792     -2.214186
  H      -2.564775      3.584523     -2.486839
  H      -1.786013      4.815736     -2.091561
17
Coordinates from ORCA-job aninline_water_2 E -363.576615956115
  N      -2.355328      3.273506      0.528855
  C      -0.986595      3.293915      0.307127
  C      -0.349695      4.504081     -0.047017
  C      -0.186158      2.145098      0.461493
  C       1.027280      4.547934     -0.264806
  C       1.192411      2.203481      0.255149
  C       1.812532      3.399441     -0.119426
  H      -0.945325      5.418804     -0.098652
  H      -0.658916      1.199170      0.742092
  H       1.494282      5.498706     -0.536669
  H       1.789006      1.295851      0.381890
  H       2.890977      3.438151     -0.286613
  H      -2.764190      2.349341      0.619704
  H      -2.887402      3.858006     -0.113908
  O      -2.718639      4.526419     -2.212016
  H      -2.590986      3.612570     -2.502471
  H      -1.808243      4.833878     -2.087039
17
Coordinates from ORCA-job aninline_water_2 E -363.576659909896
  N      -2.350660      3.262271      0.515290
  C      -0.981564      3.285710      0.301946
  C      -0.347309      4.494611     -0.060990
  C      -0.178482      2.140344      0.470263
  C       1.030730      4.541618     -0.271295
  C       1.200924      2.202370      0.270364
  C       1.818895      3.397252     -0.110907
  H      -0.948605      5.405018     -0.126996
  H      -0.649193      1.195304      0.756930
  H       1.495971      5.491255     -0.550017
  H       1.800130      1.297971      0.407532
  H       2.898148      3.438140     -0.271963
  H      -2.764178      2.340842      0.606295
  H      -2.878604      3.858213     -0.119595
  O      -2.742300      4.550700     -2.202081
  H      -2.617964      3.643228     -2.513128
  H      -1.830928      4.853505     -2.073957
17
Coordinates from ORCA-job aninline_water_2 E -363.576689699838
  N      -2.349116      3.254608      0.502565
  C      -0.979144      3.281451      0.296532
  C      -0.345144      4.489373     -0.070823
  C      -0.174361      2.138554      0.475511
  C       1.033475      4.537764     -0.276493
  C       1.205660      2.202222      0.280621
  C       1.822907      3.395926     -0.105641
  H      -0.949628      5.397182     -0.148010
  H      -0.643756      1.194056      0.765899
  H       1.498346      5.486230     -0.559724
  H       1.806120      1.299833      0.425416
  H       2.902771      3.437762     -0.262496
  H      -2.762971      2.333594      0.593687
  H      -2.874034      3.858560     -0.127931
  O      -2.756953      4.564656     -2.188868
  H      -2.634359      3.661544     -2.513773
  H      -1.844803      4.865033     -2.058780
17
Coordinates from ORCA-job aninline_water_2 E -363.576707276949
  N      -2.349352      3.251317      0.493638
  C      -0.978613      3.280811      0.292379
  C      -0.343025      4.488122     -0.075346
  C      -0.173111      2.139104      0.477235
  C       1.035851      4.536273     -0.278897
  C       1.207262      2.202495      0.285557
  C       1.825170      3.395222     -0.103072
  H      -0.947367      5.395817     -0.158354
  H      -0.642212      1.194831      0.768928
  H       1.501331      5.483928     -0.563776
  H       1.807647      1.300759      0.434612
  H       2.905344      3.436861     -0.257872
  H      -2.760426      2.328995      0.584191
  H      -2.873604      3.858497     -0.135317
  O      -2.764841      4.568775     -2.178338
  H      -2.642873      3.667585     -2.509763
  H      -1.852171      4.868961     -2.048118
17
Coordinates from ORCA-job aninline_water_2 E -363.576718623319
  N      -2.349440      3.250491      0.488111
  C      -0.978342      3.281674      0.289457
  C      -0.340738      4.488555     -0.077211
  C      -0.172684      2.140350      0.477194
  C       1.038443      4.535733     -0.279026
  C       1.207897      2.202616      0.287924
  C       1.827142      3.394655     -0.101057
  H      -0.942895      5.397708     -0.162657
  H      -0.642230      1.196244      0.768962
  H       1.504825      5.482939     -0.563880
  H       1.807538      1.300788      0.439308
  H       2.907518      3.435691     -0.254563
  H      -2.757152      2.326422      0.577299
  H      -2.874886      3.857932     -0.140273
  O      -2.771427      4.568713     -2.172164
  H      -2.650084      3.668313     -2.506563
  H      -1.858477      4.869526     -2.043172
17
Coordinates from ORCA-job aninline_water_2 E -363.576728482411
  N      -2.348269      3.249991      0.483016
  C      -0.977113      3.282455      0.286260
  C      -0.337557      4.488752     -0.079710
  C      -0.171503      2.141363      0.476808
  C       1.042289      4.534847     -0.278058
  C       1.209353      2.202384      0.290894
  C       1.830335      3.393814     -0.097504
  H      -0.936517      5.399984     -0.167324
  H      -0.641991      1.197640      0.768509
  H       1.509612      5.481743     -0.562435
  H       1.807992      1.300347      0.444832
  H       2.911035      3.434339     -0.248752
  H      -2.753086      2.324307      0.569894
  H      -2.875974      3.857001     -0.144196
  O      -2.782196      4.569168     -2.167702
  H      -2.662406      3.669929     -2.505908
  H      -1.868993      4.870286     -2.040935
17
Coordinates from ORCA-job aninline_water_2 E -363.576735639575
  N      -2.345971      3.249646      0.479432
  C      -0.974969      3.282641      0.283333
  C      -0.334282      4.488228     -0.082982
  C      -0.169681      2.141583      0.476293
  C       1.046431      4.533719     -0.276481
  C       1.211524      2.201825      0.294045
  C       1.834046      3.392980     -0.092950
  H      -0.930401      5.401041     -0.172749
  H      -0.641329      1.198391      0.767932
  H       1.514398      5.480490     -0.560256
  H       1.809313      1.299615      0.450280
  H       2.915181      3.433411     -0.241026
  H      -2.749740      2.323211      0.563866
  H      -2.875817      3.856228     -0.146216
  O      -2.794935      4.570821     -2.165512
  H      -2.677316      3.673068     -2.508170
  H      -1.881443      4.871454     -2.041149
17
Coordinates from ORCA-job aninline_water_2 E -363.576739637386
  N      -2.343624      3.249504      0.477745
  C      -0.972781      3.282306      0.281260
  C      -0.331876      4.487271     -0.086049
  C      -0.167974      2.141096      0.475786
  C       1.049576      4.532800     -0.275074
  C       1.213580      2.201237      0.296479
  C       1.836992      3.392454     -0.088975
  H      -0.926613      5.400585     -0.177741
  H      -0.640571      1.198363      0.767321
  H       1.517821      5.479581     -0.558390
  H       1.810923      1.298970      0.454157
  H       2.918530      3.433128     -0.233965
  H      -2.748145      2.323262      0.560535
  H      -2.874402      3.856052     -0.146796
  O      -2.805331      4.572838     -2.164910
  H      -2.689555      3.676482     -2.511456
  H      -1.891539      4.872422     -2.042237
17
Coordinates from ORCA-job aninline_water_2 E -363.576741606313
  N      -2.342276      3.249764      0.477520
  C      -0.971456      3.282035      0.280307
  C      -0.330678      4.486667     -0.087639
  C      -0.167106      2.140558      0.475314
  C       1.051153      4.532477     -0.274186
  C       1.214678      2.200886      0.297487
  C       1.838415      3.392297     -0.086823
  H      -0.925286      5.399809     -0.180444
  H      -0.640229      1.198049      0.766603
  H       1.519507      5.479308     -0.557166
  H       1.811888      1.298591      0.455544
  H       2.920196      3.433184     -0.229930
  H      -2.747956      2.324006      0.559685
  H      -2.872779      3.856360     -0.147005
  O      -2.810681      4.573742     -2.164933
  H      -2.695747      3.678197     -2.513663
  H      -1.896633      4.872420     -2.042983
17
Coordinates from ORCA-job aninline_water_2 E -363.576743451342
  N      -2.341466      3.250527      0.477871
  C      -0.970558      3.282035      0.279864
  C      -0.329841      4.486487     -0.088218
  C      -0.166721      2.140172      0.474734
  C       1.052193      4.532555     -0.273330
  C       1.215237      2.200659      0.297722
  C       1.839179      3.392290     -0.085513
  H      -0.924730      5.399306     -0.181621
  H      -0.640247      1.197753      0.765543
  H       1.520711      5.479432     -0.555879
  H       1.812365      1.298270      0.455576
  H       2.921126      3.433227     -0.227381
  H      -2.748187      2.325208      0.559682
  H      -2.870982      3.856934     -0.147630
  O      -2.813981      4.573545     -2.165032
  H      -2.699435      3.678554     -2.515273
  H      -1.899654      4.871395     -2.043423
17
Coordinates from ORCA-job aninline_water_2 E -363.576745969668
  N      -2.340944      3.252277      0.478736
  C      -0.969725      3.282551      0.279843
  C      -0.328871      4.486924     -0.087670
  C      -0.166704      2.140030      0.473845
  C       1.053232      4.533081     -0.272028
  C       1.215397      2.200476      0.297265
  C       1.839655      3.392360     -0.084577
  H      -0.924193      5.399420     -0.181096
  H      -0.640724      1.197607      0.763712
  H       1.522141      5.479979     -0.553803
  H       1.812358      1.297821      0.454281
  H       2.921740      3.433070     -0.225596
  H      -2.748511      2.327207      0.559933
  H      -2.868509      3.857858     -0.149401
  O      -2.816764      4.571765     -2.165140
  H      -2.702514      3.677310     -2.516917
  H      -1.902055      4.868612     -2.043696
17
Coordinates from ORCA-job aninline_water_2 E -363.576748941297
  N      -2.341004      3.254456      0.479705
  C      -0.969359      3.283457      0.280542
  C      -0.328063      4.487980     -0.085755
  C      -0.167041      2.140302      0.473271
  C       1.053917      4.533833     -0.270742
  C       1.215082      2.200433      0.296358
  C       1.839644      3.392400     -0.084555
  H      -0.923772      5.400419     -0.178332
  H      -0.641402      1.197759      0.762159
  H       1.523346      5.480667     -0.551756
  H       1.811837      1.297462      0.452231
  H       2.921716      3.432588     -0.225782
  H      -2.748544      2.329190      0.559756
  H      -2.866068      3.858640     -0.152187
  O      -2.818072      4.568944     -2.165224
  H      -2.704239      3.674955     -2.518501
  H      -1.902968      4.864863     -2.043497
17
Coordinates from ORCA-job aninline_water_2 E -363.576752045843
  N      -2.341463      3.256145      0.480245
  C      -0.969536      3.284338      0.281853
  C      -0.327633      4.489165     -0.083121
  C      -0.167436      2.140938      0.473647
  C       1.054096      4.534376     -0.269985
  C       1.214596      2.200513      0.295708
  C       1.839343      3.392283     -0.085378
  H      -0.923495      5.401833     -0.174216
  H      -0.641817      1.198243      0.762108
  H       1.523968      5.481088     -0.550689
  H       1.811181      1.297292      0.450763
  H       2.921271      3.431851     -0.227927
  H      -2.747945      2.330198      0.558370
  H      -2.864059      3.858819     -0.155352
  O      -2.818133      4.566558     -2.165235
  H      -2.705258      3.673133     -2.520463
  H      -1.902668      4.861578     -2.042639
17
Coordinates from ORCA-job aninline_water_2 E -363.576754134981
  N      -2.341993      3.256773      0.480354
  C      -0.969858      3.284868      0.283355
  C      -0.327593      4.489899     -0.081012
  C      -0.167582      2.141620      0.474796
  C       1.053836      4.534444     -0.269934
  C       1.214272      2.200635      0.295665
  C       1.839034      3.392074     -0.086430
  H      -0.923202      5.402943     -0.170649
  H      -0.641746      1.198854      0.763525
  H       1.523846      5.481021     -0.550894
  H       1.810754      1.297312      0.450517
  H       2.920752      3.431259     -0.230671
  H      -2.747046      2.329885      0.556069
  H      -2.863005      3.858435     -0.157684
  O      -2.817481      4.565681     -2.165208
  H      -2.706186      3.672924     -2.522605
  H      -1.901792      4.859724     -2.041504
17
Coordinates from ORCA-job aninline_water_2 E -363.576755300881
  N      -2.342259      3.256331      0.480307
  C      -0.970060      3.284808      0.284252
  C      -0.327865      4.489851     -0.080427
  C      -0.167428      2.141915      0.476011
  C       1.053410      4.534125     -0.270424
  C       1.214301      2.200723      0.296163
  C       1.838897      3.391912     -0.087078
  H      -0.923154      5.403152     -0.169396
  H      -0.641303      1.199187      0.765425
  H       1.523235      5.480639     -0.551953
  H       1.810799      1.297469      0.451352
  H       2.920467      3.431123     -0.232354
  H      -2.746429      2.328860      0.554032
  H      -2.862818      3.857878     -0.158209
  O      -2.816771      4.566497     -2.165115
  H      -2.707099      3.674314     -2.524346
  H      -1.900914      4.859565     -2.040551
