17
Coordinates from ORCA-job aninline_water_2 E -363.576406478259
  N          -2.37588989997825      3.30055501377354      0.54477994267625
  C          -1.00628836566686      3.32142076594705      0.31022976403450
  C          -0.36098684037001      4.53238333126216     -0.02502714583417
  C          -0.21566504438871      2.16144792091425      0.42895293231482
  C           1.01416312453588      4.56720795363059     -0.25659783012012
  C           1.16220100142360      2.21040373551415      0.21126945677603
  C           1.78936815880938      3.40832535675197     -0.14234156454907
  H          -0.95040964541188      5.45244116795821     -0.06520895999454
  H          -0.69254839332101      1.21258333835806      0.69210707730513
  H           1.48919721096431      5.51780715090173     -0.51449896900542
  H           1.75094025982665      1.29429932880350      0.31085442363394
  H           2.86664598605009      3.44072282146539     -0.31859080200949
  H          -2.76592944523039      2.36971748162590      0.64194761794390
  H          -2.90152301895090      3.86167567862169     -0.12345793014353
  O          -2.63190156756296      4.45072191527742     -2.18410921259169
  H          -2.48936113449211      3.52413477088470     -2.42025002378307
  H          -1.72700238623682      4.77250226830955     -2.06236877665348
