! B3LYP def2-SVP OPT TightSCF D3BJ

%maxcore 5000

%pal
nprocs 20
end

* xyz 0 1
N         -2.38668        3.47447        0.00255
C         -1.01196        3.47459        0.00106
C         -0.28642        4.68472        0.00067
C         -0.28621        2.26457        0.00070
C          1.10730        4.67756        0.00003
C          1.10750        2.27198        0.00006
C          1.82096        3.47483       -0.00028
H         -0.82888        5.63470        0.00096
H         -0.82851        1.31450        0.00101
H          1.64366        5.63051       -0.00027
H          1.64403        1.31911       -0.00021
H          2.91288        3.47493       -0.00081
H         -2.90419        2.60891       -0.00324
H         -2.90433        4.33994       -0.00327
O         -2.41048        3.58652       -1.27758
H         -2.25003        2.82686       -1.85382
H         -2.18363        4.33965       -1.83987
*
