20
Coordinates from ORCA-job p_toluidine_water_2_OPT E -402.841894074025
  N      -2.871042      0.348572      0.180801
  C       1.369498      0.112931      0.054887
  C      -1.465684      0.277741      0.095847
  C       0.578655     -0.996202      0.397783
  C       0.705374      1.306923     -0.253151
  C      -0.811735     -0.921912      0.427900
  C      -0.688870      1.393831     -0.239225
  C       2.873338      0.010307      0.005587
  H       1.060919     -1.942431      0.660632
  H       1.288965      2.193489     -0.517301
  H      -1.406826     -1.779486      0.750149
  H      -1.179161      2.338693     -0.491321
  H       3.346120      1.004446      0.005378
  H       3.268527     -0.552402      0.866994
  H       3.211625     -0.515541     -0.905052
  H      -3.273814      1.202813     -0.192542
  H      -3.337487     -0.461144     -0.218071
  O      -3.180388     -1.120822      2.669263
  H      -2.296361     -0.995207      3.039474
  H      -3.191218     -0.485846      1.929026
20
Coordinates from ORCA-job p_toluidine_water_2_OPT E -402.841947191305
  N      -2.872022      0.349178      0.177967
  C       1.369087      0.113005      0.055134
  C      -1.466375      0.277249      0.094643
  C       0.578068     -0.996029      0.398010
  C       0.705111      1.306953     -0.252989
  C      -0.812262     -0.922031      0.428116
  C      -0.689157      1.393533     -0.239820
  C       2.872961      0.010103      0.006479
  H       1.061537     -1.941650      0.660990
  H       1.288829      2.193524     -0.516887
  H      -1.407215     -1.778811      0.751490
  H      -1.179091      2.338425     -0.492714
  H       3.345671      1.003969      0.005841
  H       3.267561     -0.552122      0.868222
  H       3.211218     -0.516216     -0.903580
  H      -3.270864      1.206211     -0.194911
  H      -3.343917     -0.459670     -0.221669
  O      -3.175191     -1.125230      2.670360
  H      -2.291100     -0.996031      3.038726
  H      -3.192411     -0.485608      1.933652
20
Coordinates from ORCA-job p_toluidine_water_2_OPT E -402.842064783328
  N      -2.875765      0.351328      0.171439
  C       1.366145      0.112753      0.057338
  C      -1.470062      0.275056      0.091996
  C       0.574605     -0.995969      0.400325
  C       0.702459      1.306129     -0.252782
  C      -0.815554     -0.923226      0.428747
  C      -0.691889      1.391433     -0.242432
  C       2.870168      0.009155      0.011420
  H       1.062089     -1.939328      0.664323
  H       1.286385      2.192720     -0.516163
  H      -1.411197     -1.777407      0.754785
  H      -1.180761      2.336255     -0.498242
  H       3.342657      1.002672      0.008175
  H       3.262730     -0.550369      0.875470
  H       3.208863     -0.520133     -0.896273
  H      -3.260986      1.216360     -0.199345
  H      -3.363633     -0.450184     -0.229483
  O      -3.148818     -1.140165      2.665698
  H      -2.263910     -0.995937      3.026015
  H      -3.193090     -0.482388      1.946049
20
Coordinates from ORCA-job p_toluidine_water_2_OPT E -402.842125284541
  N      -2.878540      0.353630      0.169365
  C       1.363194      0.112176      0.059574
  C      -1.473251      0.273988      0.091287
  C       0.571133     -0.996380      0.402507
  C       0.699695      1.305149     -0.252831
  C      -0.818980     -0.924187      0.428972
  C      -0.694660      1.389847     -0.244202
  C       2.867364      0.008281      0.015976
  H       1.060356     -1.938602      0.667568
  H       1.283739      2.191623     -0.516485
  H      -1.415868     -1.777192      0.755917
  H      -1.182890      2.334527     -0.501839
  H       3.339841      1.001898      0.010313
  H       3.258559     -0.548740      0.882359
  H       3.206922     -0.523878     -0.889811
  H      -3.256634      1.221840     -0.201142
  H      -3.372990     -0.442833     -0.231942
  O      -3.125013     -1.150473      2.657164
  H      -2.239811     -0.993581      3.011456
  H      -3.191729     -0.478340      1.952856
20
Coordinates from ORCA-job p_toluidine_water_2_OPT E -402.842184333149
  N      -2.881741      0.356426      0.169155
  C       1.359751      0.111229      0.062170
  C      -1.476728      0.273584      0.091608
  C       0.567083     -0.997259      0.404294
  C       0.696716      1.304053     -0.252132
  C      -0.823078     -0.925319      0.428500
  C      -0.697616      1.388724     -0.244739
  C       2.863962      0.007186      0.020944
  H       1.056404     -1.939249      0.669912
  H       1.280946      2.190292     -0.516137
  H      -1.421296     -1.778111      0.754951
  H      -1.185327      2.333432     -0.503316
  H       3.336598      1.000967      0.012661
  H       3.254000     -0.547030      0.889864
  H       3.204798     -0.528123     -0.882759
  H      -3.256533      1.224246     -0.204637
  H      -3.376428     -0.437899     -0.231711
  O      -3.097535     -1.159692      2.645090
  H      -2.212907     -0.987046      2.993785
  H      -3.190634     -0.471656      1.959556
20
Coordinates from ORCA-job p_toluidine_water_2_OPT E -402.842226947435
  N      -2.883644      0.357509      0.170010
  C       1.357925      0.110424      0.063464
  C      -1.478435      0.273874      0.092469
  C       0.564841     -0.998408      0.403447
  C       0.695351      1.303765     -0.249987
  C      -0.825454     -0.926308      0.426657
  C      -0.698962      1.388909     -0.242662
  C       2.862110      0.006462      0.023208
  H       1.052368     -1.941620      0.667921
  H       1.279752      2.190122     -0.513221
  H      -1.423936     -1.780249      0.750897
  H      -1.186628      2.333977     -0.499867
  H       3.334985      1.000342      0.014051
  H       3.251909     -0.546648      0.893148
  H       3.203922     -0.530062     -0.879638
  H      -3.260944      1.220525     -0.211333
  H      -3.371283     -0.440617     -0.228844
  O      -3.082190     -1.161563      2.637985
  H      -2.199038     -0.977450      2.984827
  H      -3.192212     -0.464230      1.964528
20
Coordinates from ORCA-job p_toluidine_water_2_OPT E -402.842260892354
  N      -2.884789      0.356535      0.170183
  C       1.357286      0.109799      0.063711
  C      -1.478920      0.274489      0.093000
  C       0.563954     -0.999825      0.399745
  C       0.695255      1.304336     -0.245901
  C      -0.826559     -0.927385      0.422905
  C      -0.699023      1.390351     -0.237950
  C       2.861350      0.005891      0.023472
  H       1.048571     -1.945357      0.661150
  H       1.279885      2.191245     -0.506469
  H      -1.424457     -1.783586      0.743266
  H      -1.186896      2.336266     -0.491460
  H       3.334515      0.999672      0.014800
  H       3.251412     -0.547441      0.893225
  H       3.203795     -0.530360     -0.879350
  H      -3.267782      1.211248     -0.223738
  H      -3.361038     -0.450551     -0.224006
  O      -3.075034     -1.157736      2.636258
  H      -2.194149     -0.963893      2.983434
  H      -3.196940     -0.454945      1.970784
20
Coordinates from ORCA-job p_toluidine_water_2_OPT E -402.842277686791
  N      -2.884134      0.353799      0.169418
  C       1.358285      0.109684      0.062868
  C      -1.477876      0.274282      0.092712
  C       0.565021     -1.000953      0.395391
  C       0.696154      1.305285     -0.242410
  C      -0.825560     -0.928462      0.419086
  C      -0.698149      1.391472     -0.233836
  C       2.862363      0.006041      0.021754
  H       1.048183     -1.948123      0.653568
  H       1.280798      2.193129     -0.499939
  H      -1.422495     -1.786470      0.735678
  H      -1.186443      2.338132     -0.483659
  H       3.335457      0.999817      0.014781
  H       3.253019     -0.548809      0.890245
  H       3.204727     -0.528453     -0.882083
  H      -3.270884      1.202605     -0.233796
  H      -3.353946     -0.460431     -0.219461
  O      -3.081374     -1.149807      2.641735
  H      -2.201328     -0.955411      2.990964
  H      -3.201380     -0.448574      1.974043
20
Coordinates from ORCA-job p_toluidine_water_2_OPT E -402.842288841427
  N      -2.883545      0.350426      0.167762
  C       1.358962      0.109508      0.062255
  C      -1.477216      0.273165      0.091504
  C       0.565873     -1.002390      0.390747
  C       0.696551      1.306043     -0.238693
  C      -0.824727     -0.930223      0.414373
  C      -0.697764      1.392051     -0.229998
  C       2.863073      0.006258      0.020878
  H       1.048833     -1.950604      0.645518
  H       1.281151      2.194962     -0.492556
  H      -1.421132     -1.789899      0.726706
  H      -1.186326      2.339569     -0.476049
  H       3.335804      1.000073      0.015485
  H       3.253903     -0.549852      0.888380
  H       3.205474     -0.526648     -0.883730
  H      -3.271615      1.194600     -0.244512
  H      -3.351063     -0.469407     -0.213884
  O      -3.085498     -1.141156      2.647391
  H      -2.205564     -0.946880      2.996828
  H      -3.204737     -0.440842      1.978654
20
Coordinates from ORCA-job p_toluidine_water_2_OPT E -402.842296924852
  N      -2.883141      0.347507      0.165919
  C       1.359175      0.109191      0.062019
  C      -1.477099      0.271418      0.089658
  C       0.566347     -1.004143      0.386287
  C       0.696312      1.306384     -0.235439
  C      -0.824241     -0.932603      0.408969
  C      -0.698016      1.391951     -0.227190
  C       2.863385      0.006594      0.021255
  H       1.050081     -1.952824      0.637868
  H       1.280816      2.196384     -0.485764
  H      -1.420652     -1.793856      0.716546
  H      -1.186682      2.340296     -0.469876
  H       3.335503      1.000636      0.016905
  H       3.253966     -0.550061      0.888467
  H       3.206255     -0.525386     -0.883634
  H      -3.270893      1.188120     -0.254269
  H      -3.351689     -0.476045     -0.207122
  O      -3.086755     -1.132808      2.652240
  H      -2.205973     -0.939833      3.000197
  H      -3.206263     -0.432170      1.984021
20
Coordinates from ORCA-job p_toluidine_water_2_OPT E -402.842302416769
  N      -2.883026      0.346028      0.164528
  C       1.358864      0.108801      0.062167
  C      -1.477526      0.269729      0.087713
  C       0.566239     -1.005749      0.383040
  C       0.695596      1.306284     -0.233432
  C      -0.824321     -0.934852      0.404174
  C      -0.698738      1.391391     -0.225964
  C       2.863208      0.006939      0.022767
  H       1.051065     -1.954470      0.632390
  H       1.280005      2.197049     -0.481311
  H      -1.421177     -1.797355      0.707446
  H      -1.187330      2.340329     -0.466428
  H       3.334686      1.001298      0.018547
  H       3.253214     -0.549268      0.890547
  H       3.206981     -0.525146     -0.881725
  H      -3.270152      1.184345     -0.260803
  H      -3.354329     -0.479396     -0.200386
  O      -3.085030     -1.126515      2.654976
  H      -2.202649     -0.936167      3.000322
  H      -3.205143     -0.424522      1.988490
20
Coordinates from ORCA-job p_toluidine_water_2_OPT E -402.842307507784
  N      -2.883164      0.345218      0.162906
  C       1.357996      0.108205      0.062573
  C      -1.478513      0.267791      0.084992
  C       0.565477     -1.007756      0.379327
  C       0.694355      1.305945     -0.231487
  C      -0.825035     -0.937534      0.398149
  C      -0.699970      1.390523     -0.225327
  C       2.862559      0.007315      0.025627
  H       1.051457     -1.956499      0.626338
  H       1.278712      2.197505     -0.476731
  H      -1.422613     -1.801520      0.696084
  H      -1.188351      2.340096     -0.463501
  H       3.333256      1.002111      0.020778
  H       3.251533     -0.547404      0.894910
  H       3.207994     -0.525848     -0.877666
  H      -3.270480      1.180704     -0.267484
  H      -3.358119     -0.482340     -0.191110
  O      -3.080437     -1.119135      2.657121
  H      -2.195300     -0.933790      2.998199
  H      -3.200920     -0.414834      1.993362
20
Coordinates from ORCA-job p_toluidine_water_2_OPT E -402.842312340419
  N      -2.883664      0.346227      0.161902
  C       1.357142      0.108004      0.063129
  C      -1.479508      0.267371      0.083607
  C       0.564481     -1.008230      0.378683
  C       0.693650      1.305647     -0.231444
  C      -0.826036     -0.938312      0.395947
  C      -0.700674      1.390211     -0.226082
  C       2.861713      0.007341      0.027848
  H       1.050814     -1.956873      0.625308
  H       1.278091      2.197228     -0.476320
  H      -1.424067     -1.802898      0.691600
  H      -1.188766      2.339975     -0.464177
  H       3.332209      1.002235      0.021246
  H       3.249950     -0.545281      0.898814
  H       3.208171     -0.527814     -0.873884
  H      -3.271803      1.180941     -0.268947
  H      -3.360966     -0.482030     -0.186419
  O      -3.075770     -1.117414      2.656545
  H      -2.188538     -0.936562      2.994576
  H      -3.195993     -0.411013      1.995129
20
Coordinates from ORCA-job p_toluidine_water_2_OPT E -402.842320048828
  N      -2.884971      0.349023      0.158938
  C       1.355073      0.107667      0.064247
  C      -1.481902      0.267404      0.080501
  C       0.561683     -1.008736      0.377258
  C       0.692260      1.305342     -0.231348
  C      -0.828852     -0.938980      0.391726
  C      -0.702059      1.390120     -0.227937
  C       2.859697      0.007074      0.032739
  H       1.047681     -1.957625      0.623455
  H       1.277065      2.196943     -0.475341
  H      -1.427406     -1.804695      0.683382
  H      -1.189492      2.340250     -0.466025
  H       3.330123      1.002003      0.021166
  H       3.246267     -0.539992      0.908024
  H       3.208476     -0.533609     -0.864824
  H      -3.276467      1.181337     -0.272716
  H      -3.365650     -0.482144     -0.176238
  O      -3.064854     -1.114458      2.654969
  H      -2.172874     -0.945040      2.986305
  H      -3.183359     -0.403130      1.998779
20
Coordinates from ORCA-job p_toluidine_water_2_OPT E -402.842323061515
  N      -2.885371      0.350072      0.157595
  C       1.354841      0.107893      0.064446
  C      -1.482247      0.268358      0.080320
  C       0.561083     -1.008098      0.377678
  C       0.692369      1.305676     -0.231438
  C      -0.829510     -0.938121      0.392050
  C      -0.701895      1.390780     -0.228187
  C       2.859404      0.006802      0.033086
  H       1.046231     -1.957390      0.624117
  H       1.277323      2.197095     -0.475588
  H      -1.427678     -1.803962      0.683980
  H      -1.189213      2.340827     -0.466685
  H       3.330146      1.001517      0.019193
  H       3.245956     -0.538270      0.909623
  H       3.208156     -0.536085     -0.863126
  H      -3.278296      1.181807     -0.273816
  H      -3.365467     -0.482532     -0.175160
  O      -3.064024     -1.115144      2.654603
  H      -2.171027     -0.949683      2.985273
  H      -3.180344     -0.402787      1.999094
20
Coordinates from ORCA-job p_toluidine_water_2_OPT E -402.842325737107
  N      -2.885670      0.350816      0.155854
  C       1.354895      0.108269      0.064403
  C      -1.482314      0.269768      0.080534
  C       0.560676     -1.007149      0.377990
  C       0.692762      1.306360     -0.231129
  C      -0.830003     -0.936729      0.392957
  C      -0.701422      1.391896     -0.227806
  C       2.859383      0.006426      0.032581
  H       1.044455     -1.957110      0.624666
  H       1.277923      2.197673     -0.475157
  H      -1.427336     -1.802558      0.686129
  H      -1.188766      2.341878     -0.466436
  H       3.330563      1.000831      0.015586
  H       3.246253     -0.536231      0.910462
  H       3.207599     -0.539219     -0.862098
  H      -3.279762      1.181528     -0.276483
  H      -3.364039     -0.483912     -0.174707
  O      -3.065005     -1.116232      2.654417
  H      -2.171333     -0.955097      2.985362
  H      -3.178419     -0.402451      1.999932
20
Coordinates from ORCA-job p_toluidine_water_2_OPT E -402.842327054672
  N      -2.885671      0.351093      0.155302
  C       1.355082      0.108476      0.064245
  C      -1.482217      0.270434      0.080848
  C       0.560693     -1.006687      0.378084
  C       0.693009      1.306713     -0.230961
  C      -0.830030     -0.936041      0.393474
  C      -0.701144      1.392451     -0.227416
  C       2.859546      0.006330      0.032034
  H       1.043877     -1.956950      0.624813
  H       1.278254      2.198007     -0.474890
  H      -1.426930     -1.801813      0.687463
  H      -1.188549      2.342434     -0.465948
  H       3.330846      1.000619      0.012848
  H       3.246713     -0.534624      0.910831
  H       3.207314     -0.541180     -0.861651
  H      -3.279600      1.181226     -0.278337
  H      -3.363310     -0.484535     -0.174257
  O      -3.066558     -1.116972      2.654084
  H      -2.172645     -0.958454      2.985620
  H      -3.178243     -0.401775      2.000874
20
Coordinates from ORCA-job p_toluidine_water_2_OPT E -402.842329664098
  N      -2.885484      0.352105      0.155240
  C       1.355634      0.108972      0.063827
  C      -1.481835      0.271772      0.081823
  C       0.561029     -1.005669      0.378635
  C       0.693584      1.307326     -0.231126
  C      -0.829763     -0.934602      0.394886
  C      -0.700513      1.393471     -0.226913
  C       2.860034      0.006328      0.030759
  H       1.043361     -1.956318      0.625636
  H       1.278957      2.198446     -0.475381
  H      -1.426030     -1.800146      0.690634
  H      -1.188008      2.343424     -0.465457
  H       3.331434      1.000405      0.005783
  H       3.247941     -0.530011      0.912055
  H       3.206739     -0.546081     -0.860271
  H      -3.278114      1.181269     -0.281595
  H      -3.362327     -0.484688     -0.172782
  O      -3.071007     -1.119559      2.652377
  H      -2.176636     -0.967574      2.985684
  H      -3.178557     -0.400116      2.003244
20
Coordinates from ORCA-job p_toluidine_water_2_OPT E -402.842332290570
  N      -2.884955      0.353505      0.156714
  C       1.356249      0.109425      0.063287
  C      -1.481319      0.272789      0.082879
  C       0.561609     -1.004826      0.379369
  C       0.694128      1.307676     -0.232055
  C      -0.829172     -0.933410      0.396386
  C      -0.699942      1.394104     -0.227065
  C       2.860654      0.006583      0.029643
  H       1.043710     -1.955478      0.626790
  H       1.279573      2.198531     -0.477225
  H      -1.425257     -1.798604      0.693405
  H      -1.187441      2.343994     -0.465912
  H       3.331965      1.000543     -0.001286
  H       3.249215     -0.524825      0.913667
  H       3.206536     -0.550890     -0.858543
  H      -3.275918      1.181988     -0.282890
  H      -3.361948     -0.483514     -0.170498
  O      -3.076521     -1.122433      2.650003
  H      -2.181722     -0.977809      2.985433
  H      -3.179008     -0.398593      2.004956
20
Coordinates from ORCA-job p_toluidine_water_2_OPT E -402.842335861925
  N      -2.883887      0.356441      0.160813
  C       1.357272      0.110224      0.062416
  C      -1.480284      0.274432      0.084860
  C       0.562714     -1.003352      0.381301
  C       0.695100      1.308030     -0.234579
  C      -0.827983     -0.931403      0.399512
  C      -0.698940      1.394901     -0.228166
  C       2.861675      0.007113      0.028006
  H       1.045057     -1.953622      0.629724
  H       1.280599      2.198158     -0.482236
  H      -1.424410     -1.795910      0.698092
  H      -1.186281      2.344566     -0.468223
  H       3.332829      1.000804     -0.012595
  H       3.251196     -0.516120      0.916533
  H       3.206417     -0.558626     -0.855385
  H      -3.272577      1.184270     -0.282155
  H      -3.361642     -0.480035     -0.166534
  O      -3.085843     -1.128330      2.644872
  H      -2.190687     -0.995443      2.984204
  H      -3.179887     -0.397346      2.006599
20
Coordinates from ORCA-job p_toluidine_water_2_OPT E -402.842337769222
  N      -2.882967      0.358871      0.164516
  C       1.357959      0.110825      0.061815
  C      -1.479409      0.275644      0.086254
  C       0.563481     -1.002224      0.383027
  C       0.695894      1.308195     -0.236990
  C      -0.827098     -0.929899      0.402080
  C      -0.698159      1.395377     -0.229566
  C       2.862343      0.007465      0.027065
  H       1.046376     -1.951956      0.632339
  H       1.281429      2.197664     -0.486953
  H      -1.424191     -1.793835      0.701182
  H      -1.185264      2.344824     -0.470979
  H       3.333502      1.000889     -0.019891
  H       3.252367     -0.510264      0.918626
  H       3.206523     -0.563783     -0.852994
  H      -3.271019      1.186454     -0.279541
  H      -3.361459     -0.476852     -0.163673
  O      -3.092249     -1.133161      2.640837
  H      -2.197172     -1.007719      2.983198
  H      -3.180450     -0.397761      2.006706
20
Coordinates from ORCA-job p_toluidine_water_2_OPT E -402.842338907616
  N      -2.881727      0.362169      0.168908
  C       1.358843      0.111672      0.061004
  C      -1.478234      0.277564      0.088024
  C       0.564279     -1.000524      0.385451
  C       0.697081      1.308556     -0.240323
  C      -0.826135     -0.927629      0.405695
  C      -0.697018      1.396232     -0.231552
  C       2.863212      0.007755      0.025860
  H       1.047794     -1.949585      0.636047
  H       1.282706      2.197118     -0.493389
  H      -1.424077     -1.790756      0.705436
  H      -1.183770      2.345358     -0.474957
  H       3.334558      1.000682     -0.029441
  H       3.253817     -0.502710      0.921401
  H       3.206718     -0.570797     -0.849687
  H      -3.269929      1.189587     -0.275388
  H      -3.360939     -0.472774     -0.160314
  O      -3.100142     -1.140131      2.635662
  H      -2.205503     -1.023408      2.982229
  H      -3.181097     -0.399623      2.006394
20
Coordinates from ORCA-job p_toluidine_water_2_OPT E -402.842339819310
  N      -2.881616      0.361857      0.168795
  C       1.358887      0.111703      0.060994
  C      -1.478054      0.277599      0.087867
  C       0.564349     -1.000511      0.385369
  C       0.697236      1.308610     -0.240273
  C      -0.826059     -0.927624      0.405744
  C      -0.696873      1.396277     -0.231645
  C       2.863203      0.007638      0.025789
  H       1.048031     -1.949510      0.635936
  H       1.282835      2.197145     -0.493282
  H      -1.424198     -1.790721      0.705332
  H      -1.183578      2.345376     -0.475139
  H       3.334710      1.000534     -0.028185
  H       3.253712     -0.504008      0.920681
  H       3.206772     -0.569803     -0.850445
  H      -3.270788      1.189429     -0.274394
  H      -3.360523     -0.473068     -0.161034
  O      -3.099755     -1.140412      2.636069
  H      -2.205731     -1.020731      2.983248
  H      -3.182122     -0.401026      2.005633
20
Coordinates from ORCA-job p_toluidine_water_2_OPT E -402.842341755890
  N      -2.880872      0.361860      0.169182
  C       1.359490      0.112173      0.060570
  C      -1.477094      0.278599      0.088173
  C       0.564972     -0.999755      0.385809
  C       0.698180      1.309049     -0.240930
  C      -0.825414     -0.926683      0.407058
  C      -0.695926      1.396986     -0.232048
  C       2.863641      0.007348      0.024751
  H       1.048934     -1.948573      0.636681
  H       1.283766      2.197318     -0.494461
  H      -1.424011     -1.789326      0.707295
  H      -1.182524      2.345939     -0.476124
  H       3.335712      0.999912     -0.029195
  H       3.254302     -0.504579      0.919388
  H       3.206800     -0.570099     -0.851586
  H      -3.272385      1.189730     -0.271498
  H      -3.358926     -0.473193     -0.161903
  O      -3.101955     -1.144009      2.635293
  H      -2.210223     -1.018623      2.986388
  H      -3.186028     -0.405321      2.004218
20
Coordinates from ORCA-job p_toluidine_water_2_OPT E -402.842343405997
  N      -2.879776      0.362826      0.170310
  C       1.360373      0.112768      0.059864
  C      -1.476038      0.279942      0.088893
  C       0.565772     -0.998730      0.386456
  C       0.699268      1.309578     -0.242095
  C      -0.824545     -0.925306      0.408658
  C      -0.694868      1.397874     -0.232601
  C       2.864446      0.007303      0.023422
  H       1.049820     -1.947387      0.637779
  H       1.284901      2.197546     -0.496602
  H      -1.423451     -1.787338      0.709956
  H      -1.181392      2.346701     -0.477296
  H       3.336857      0.999464     -0.034620
  H       3.255586     -0.501278      0.919769
  H       3.206919     -0.573657     -0.850830
  H      -3.272562      1.190571     -0.269446
  H      -3.357763     -0.472577     -0.160101
  O      -3.106910     -1.148634      2.632828
  H      -2.217085     -1.023109      2.988709
  H      -3.189116     -0.407803      2.004006
20
Coordinates from ORCA-job p_toluidine_water_2_OPT E -402.842348000565
  N      -2.874431      0.369395      0.177691
  C       1.364843      0.115765      0.056321
  C      -1.470956      0.286999      0.093776
  C       0.569775     -0.993151      0.391187
  C       0.704519      1.311964     -0.249053
  C      -0.820176     -0.917720      0.418217
  C      -0.689686      1.402224     -0.235685
  C       2.868612      0.007466      0.016563
  H       1.053824     -1.941028      0.645546
  H       1.290403      2.197979     -0.509818
  H      -1.420338     -1.776431      0.726262
  H      -1.175866      2.350250     -0.484138
  H       3.342108      0.997247     -0.067081
  H       3.262760     -0.479750      0.923503
  H       3.207148     -0.595102     -0.844391
  H      -3.270599      1.197043     -0.259170
  H      -3.353054     -0.466820     -0.149932
  O      -3.133301     -1.173837      2.616803
  H      -2.252427     -1.055238      2.996475
  H      -3.202721     -0.418499      2.003985
20
Coordinates from ORCA-job p_toluidine_water_2_OPT E -402.842350230651
  N      -2.872927      0.371284      0.180154
  C       1.366193      0.116338      0.055221
  C      -1.469731      0.288259      0.095332
  C       0.571154     -0.992055      0.392066
  C       0.705686      1.312289     -0.250869
  C      -0.818701     -0.916204      0.420140
  C      -0.688494      1.402924     -0.236180
  C       2.869998      0.007980      0.014673
  H       1.054984     -1.939858      0.647048
  H       1.291569      2.197892     -0.513235
  H      -1.418738     -1.774286      0.729972
  H      -1.174727      2.350802     -0.485189
  H       3.343146      0.997210     -0.077330
  H       3.265201     -0.471988      0.925066
  H       3.207515     -0.601440     -0.841853
  H      -3.268233      1.199024     -0.257123
  H      -3.352628     -0.464956     -0.145635
  O      -3.142224     -1.178986      2.612356
  H      -2.263241     -1.066216      2.998252
  H      -3.205366     -0.419260      2.004193
20
Coordinates from ORCA-job p_toluidine_water_2_OPT E -402.842352026653
  N      -2.867684      0.378812      0.190482
  C       1.370906      0.118417      0.051472
  C      -1.465346      0.293152      0.101755
  C       0.575927     -0.987699      0.396552
  C       0.709927      1.313435     -0.257967
  C      -0.813605     -0.910162      0.428902
  C      -0.684177      1.405494     -0.238223
  C       2.874783      0.009644      0.007765
  H       1.059052     -1.935094      0.654191
  H       1.295800      2.197179     -0.527190
  H      -1.413457     -1.765899      0.745215
  H      -1.170449      2.352696     -0.490133
  H       3.346647      0.996135     -0.115522
  H       3.274017     -0.442863      0.930561
  H       3.208548     -0.625178     -0.831599
  H      -3.260482      1.207299     -0.247249
  H      -3.350680     -0.456746     -0.131134
  O      -3.172885     -1.199384      2.593452
  H      -2.301904     -1.106669      3.002194
  H      -3.214500     -0.423814      2.003536
20
Coordinates from ORCA-job p_toluidine_water_2_OPT E -402.842353285955
  N      -2.869889      0.375914      0.186761
  C       1.369071      0.117380      0.052957
  C      -1.467223      0.290704      0.099620
  C       0.574193     -0.989686      0.394704
  C       0.708047      1.312743     -0.254972
  C      -0.815532     -0.912885      0.425434
  C      -0.685999      1.404096     -0.237011
  C       2.872963      0.009239      0.010380
  H       1.057279     -1.937437      0.651204
  H       1.293864      2.197218     -0.521532
  H      -1.414977     -1.769848      0.739407
  H      -1.172349      2.351559     -0.487615
  H       3.344903      0.997035     -0.101407
  H       3.270846     -0.453314      0.928709
  H       3.208146     -0.616185     -0.835456
  H      -3.262445      1.204665     -0.250859
  H      -3.351908     -0.459472     -0.137005
  O      -3.160797     -1.191126      2.600169
  H      -2.286913     -1.090132      3.000606
  H      -3.210843     -0.421713      2.002964
20
Coordinates from ORCA-job p_toluidine_water_2_OPT E -402.842354089644
  N      -2.870940      0.374685      0.185246
  C       1.368263      0.116906      0.053619
  C      -1.468042      0.289580      0.098831
  C       0.573516     -0.990586      0.393838
  C       0.707198      1.312441     -0.253519
  C      -0.816350     -0.914141      0.424019
  C      -0.686765      1.403474     -0.236300
  C       2.872141      0.009055      0.011454
  H       1.056489     -1.938574      0.649750
  H       1.292991      2.197207     -0.518871
  H      -1.415454     -1.771839      0.736956
  H      -1.173171      2.351036     -0.486296
  H       3.344039      0.997337     -0.095810
  H       3.269529     -0.457404      0.927987
  H       3.207888     -0.612645     -0.836889
  H      -3.263291      1.203711     -0.252122
  H      -3.352595     -0.460507     -0.139782
  O      -3.155064     -1.187876      2.602531
  H      -2.280574     -1.081826      3.000334
  H      -3.209372     -0.421280      2.002082
20
Coordinates from ORCA-job p_toluidine_water_2_OPT E -402.842355315334
  N      -2.871729      0.373895      0.184426
  C       1.367685      0.116511      0.054055
  C      -1.468605      0.288602      0.098499
  C       0.573129     -0.991349      0.392953
  C       0.706529      1.312241     -0.252192
  C      -0.816899     -0.915221      0.422981
  C      -0.687321      1.402973     -0.235372
  C       2.871560      0.008951      0.012105
  H       1.055905     -1.939646      0.648134
  H       1.292317      2.197244     -0.516555
  H      -1.415430     -1.773812      0.734833
  H      -1.173831      2.350622     -0.484745
  H       3.343285      0.997491     -0.093283
  H       3.268776     -0.459011      0.927928
  H       3.207651     -0.611195     -0.837215
  H      -3.263682      1.203257     -0.252745
  H      -3.353318     -0.460971     -0.141818
  O      -3.150529     -1.185967      2.603396
  H      -2.276830     -1.074229      3.001358
  H      -3.208227     -0.421633      2.000318
20
Coordinates from ORCA-job p_toluidine_water_2_OPT E -402.842357090370
  N      -2.871691      0.374516      0.185262
  C       1.367789      0.116549      0.053785
  C      -1.468407      0.288674      0.099178
  C       0.573371     -0.991329      0.392447
  C       0.706617      1.312457     -0.251821
  C      -0.816775     -0.915212      0.423281
  C      -0.687124      1.403172     -0.234550
  C       2.871641      0.008950      0.011639
  H       1.055884     -1.939928      0.647048
  H       1.292462      2.197404     -0.516095
  H      -1.414638     -1.774505      0.734673
  H      -1.173727      2.350837     -0.483614
  H       3.343148      0.997039     -0.098568
  H       3.269339     -0.454560      0.929532
  H       3.207445     -0.615229     -0.834786
  H      -3.263257      1.204094     -0.251923
  H      -3.353608     -0.459975     -0.141726
  O      -3.150125     -1.188349      2.600720
  H      -2.279844     -1.072008      3.004804
  H      -3.208064     -0.423842      1.997773
20
Coordinates from ORCA-job p_toluidine_water_2_OPT E -402.842359249937
  N      -2.869509      0.378877      0.190602
  C       1.369782      0.117849      0.051672
  C      -1.466043      0.291822      0.102925
  C       0.575413     -0.988944      0.393500
  C       0.708871      1.313829     -0.254071
  C      -0.814753     -0.911982      0.427840
  C      -0.684718      1.405392     -0.233928
  C       2.873471      0.009120      0.007801
  H       1.057448     -1.937817      0.648109
  H       1.294905      2.197798     -0.520958
  H      -1.411783     -1.771247      0.741139
  H      -1.171366      2.352817     -0.483774
  H       3.344689      0.994458     -0.125304
  H       3.273658     -0.433863      0.934799
  H       3.206983     -0.633924     -0.825166
  H      -3.260492      1.208951     -0.246303
  H      -3.352309     -0.454712     -0.137829
  O      -3.160539     -1.203491      2.588277
  H      -2.301723     -1.083494      3.015179
  H      -3.211548     -0.432685      1.992549
20
Coordinates from ORCA-job p_toluidine_water_2_OPT E -402.842360958855
  N      -2.868728      0.380531      0.192095
  C       1.370355      0.118284      0.050897
  C      -1.465431      0.293057      0.103619
  C       0.575737     -0.988182      0.393738
  C       0.709596      1.314265     -0.255211
  C      -0.814263     -0.910812      0.428686
  C      -0.684094      1.406177     -0.234327
  C       2.874076      0.009220      0.006984
  H       1.057911     -1.936907      0.648515
  H       1.295710      2.198016     -0.523007
  H      -1.411580     -1.769527      0.742588
  H      -1.170627      2.353628     -0.484445
  H       3.345276      0.993559     -0.133703
  H       3.274791     -0.426799      0.937112
  H       3.207112     -0.640130     -0.821268
  H      -3.259482      1.210301     -0.245536
  H      -3.351921     -0.453011     -0.135711
  O      -3.164816     -1.207526      2.585517
  H      -2.308103     -1.091321      3.017663
  H      -3.211082     -0.434069      1.992852
20
Coordinates from ORCA-job p_toluidine_water_2_OPT E -402.842363834426
  N      -2.867365      0.383849      0.194323
  C       1.371267      0.119259      0.049280
  C      -1.464408      0.296105      0.104450
  C       0.575834     -0.986562      0.393934
  C       0.711080      1.315323     -0.257482
  C      -0.813715     -0.908173      0.429595
  C      -0.682899      1.408196     -0.235251
  C       2.875022      0.009185      0.005721
  H       1.058499     -1.934956      0.648988
  H       1.297361      2.198651     -0.526834
  H      -1.412366     -1.765097      0.745098
  H      -1.168973      2.355822     -0.485768
  H       3.346413      0.990998     -0.151504
  H       3.276593     -0.411472      0.942666
  H       3.207144     -0.653965     -0.811896
  H      -3.257822      1.212985     -0.244652
  H      -3.350748     -0.449606     -0.132929
  O      -3.171990     -1.216376      2.580806
  H      -2.319916     -1.107748      3.023989
  H      -3.208573     -0.437664      1.994523
20
Coordinates from ORCA-job p_toluidine_water_2_OPT E -402.842364355988
  N      -2.866910      0.385255      0.195359
  C       1.371646      0.119673      0.048556
  C      -1.463899      0.297520      0.104987
  C       0.575964     -0.985821      0.394038
  C       0.711775      1.315788     -0.258341
  C      -0.813429     -0.906944      0.430184
  C      -0.682239      1.409176     -0.235498
  C       2.875344      0.009103      0.005014
  H       1.058684     -1.934147      0.649202
  H       1.298133      2.198853     -0.528372
  H      -1.412753     -1.762969      0.746818
  H      -1.168077      2.356888     -0.486232
  H       3.346733      0.989552     -0.160456
  H       3.277450     -0.403849      0.945190
  H       3.206905     -0.660825     -0.807248
  H      -3.257122      1.214784     -0.243154
  H      -3.350145     -0.447799     -0.133125
  O      -3.174164     -1.221516      2.577958
  H      -2.325555     -1.113268      3.027809
  H      -3.207904     -0.440702      1.994371
20
Coordinates from ORCA-job p_toluidine_water_2_OPT E -402.842364304481
  N      -2.865913      0.388060      0.197945
  C       1.372551      0.120451      0.047120
  C      -1.462689      0.300172      0.106501
  C       0.576628     -0.984319      0.394569
  C       0.713204      1.316603     -0.260153
  C      -0.812562     -0.904504      0.432041
  C      -0.680762      1.411007     -0.235896
  C       2.876124      0.009040      0.003284
  H       1.059215     -1.932618      0.650071
  H       1.299708      2.199015     -0.531814
  H      -1.413032     -1.758920      0.751030
  H      -1.166190      2.358769     -0.487294
  H       3.347280      0.986621     -0.178756
  H       3.279563     -0.388332      0.949648
  H       3.206452     -0.674288     -0.798143
  H      -3.255635      1.218871     -0.238708
  H      -3.348996     -0.443983     -0.133500
  O      -3.178795     -1.232288      2.571051
  H      -2.337758     -1.123599      3.034729
  H      -3.207957     -0.447003      1.993333
20
Coordinates from ORCA-job p_toluidine_water_2_OPT E -402.842364881473
  N      -2.866693      0.386326      0.196312
  C       1.371905      0.119903      0.047854
  C      -1.463463      0.298618      0.105470
  C       0.576179     -0.985388      0.393840
  C       0.712312      1.316103     -0.258897
  C      -0.813146     -0.906033      0.430435
  C      -0.681626      1.410029     -0.235508
  C       2.875544      0.009067      0.004427
  H       1.058741     -1.933822      0.648942
  H       1.298745      2.198910     -0.529402
  H      -1.413386     -1.761085      0.748160
  H      -1.167176      2.357849     -0.486363
  H       3.346653      0.988036     -0.170149
  H       3.278273     -0.395155      0.948158
  H       3.206631     -0.668273     -0.801788
  H      -3.256428      1.217229     -0.240097
  H      -3.349678     -0.445789     -0.135142
  O      -3.174898     -1.226932      2.574874
  H      -2.330714     -1.116426      3.032391
  H      -3.207339     -0.444413      1.993541
