18
Coordinates from ORCA-job ABN_water_2_OPT E -455.707737884312
  N           3.06398927702708      0.04256355513999     -0.35709721907005
  N          -3.68921719526027     -0.02608869472415      0.48451611226343
  C           1.69101124227729      0.02741534541043     -0.14360932753297
  C           0.98555345412216     -1.19096618002689     -0.09686572948599
  C           0.97007091631733      1.23162434107207     -0.02423822596621
  C          -1.11281018132097     -0.00010874706815      0.18276227475712
  C          -0.39359204449042     -1.20469046515569      0.06380339956202
  C          -0.40924720178180      1.21839987975593      0.13635768747600
  C          -2.53512320512434     -0.01428096618063      0.35058602275672
  H           1.53141704324854     -2.13319769293558     -0.19123288660407
  H           1.50377114301103      2.18482765039615     -0.06077570481914
  H          -0.92836052339480     -2.15558569759274      0.10075588784776
  H          -0.95604836017418      2.15848138092966      0.23012708086801
  H           3.55871949379651      0.88027457649267     -0.06667949108103
  H           3.56808110246634     -0.80410206578645     -0.11096276538504
  O           4.73805546192393     -0.09014702774849     -2.76272504942862
  H           3.96012009251785     -0.02994957711648     -2.18131327826182
  H           4.38798691923870      0.11720929933836     -3.63892555239611
