17
Coordinates from ORCA-job aniline_water_2_OPT E -363.578117727894
  N          -2.43448121703009      0.36741909262932      0.18147699052412
  C          -1.03503828260197      0.26528824755481      0.09117257825581
  C          -0.25131394768408      1.36706356498337     -0.28698435393081
  C          -0.39508418360517     -0.93540088926926      0.45035341829320
  C           1.14133215301191      1.26770605201573     -0.31236981082119
  C           0.99577466928623     -1.02558379053463      0.41426859727434
  C           1.77548224569855      0.07185521874630      0.03316518508271
  H          -0.73879224595821      2.30622015555282     -0.56492442869101
  H          -1.00293284268754     -1.77645415963349      0.79013040178293
  H           1.73416941190368      2.13598761060392     -0.61177659397178
  H           1.47672910983906     -1.96684898813745      0.69353768127783
  H           2.86469209650143     -0.00448391242286      0.00800482764853
  H          -2.92869388080783     -0.48058696747235     -0.08570326344044
  H          -2.82565691636669      1.17624870728722     -0.29281707890022
  O          -2.74456746251013     -1.14939486778922      2.62545895812616
  H          -1.89330254651412     -1.04948410740446      3.07222001838264
  H          -2.76730583577498     -0.37735412480977      2.03082780330714
