! B3LYP def2-SVP OPT TightSCF D3BJ


%maxcore 4000

%pal
nprocs 28
end

* xyz 0 1
  N          -2.52084091023975      0.19779112276586      0.02118450130525
  C          -1.12396363333801      0.14972535217109      0.02043920716364
  C          -0.34875011485849      1.31141793688940     -0.14573336946439
  C          -0.47317840587718     -1.07028692010055      0.26985125803315
  C           1.04281334266286      1.24999815394123     -0.06673798502378
  C           0.91888574892368     -1.12227840775256      0.34167227360172
  C           1.68806975307439      0.03362853696211      0.17464781269180
  H          -0.84550990406733      2.26751684977242     -0.33502880743775
  H          -1.06849007205679     -1.97283101242976      0.42976426659583
  H           1.62831204017076      2.16343228549988     -0.19951986122304
  H           1.40808626639026     -2.08051741999009      0.53407557526183
  H           2.77746215790859     -0.01315905868877      0.23343705271735
  H          -2.96786682393273     -0.63570714011431     -0.36650985713995
  H          -2.91059578300807      1.05220445746963     -0.37384086086954
  O          -2.30620436951312     -0.55868809567126      2.88197302719988
  H          -1.34281019978077     -0.54641399859569      2.80896787707133
  H          -2.58440876775828     -0.23363580022861      2.00739881971663                
*         
          
