18
Coordinates from ORCA-job 4nitroaniline_water_2 E -455.715039908680
  N       2.551171      4.445261      0.826331
  N      -4.202134      3.784166      0.505026
  C       1.193042      4.328042      0.758224
  C       0.540952      3.224972      1.364132
  C       0.398087      5.282937      0.080316
  C      -1.624825      4.046144      0.618875
  C      -0.836600      3.091757      1.294310
  C      -0.979988      5.143194      0.012612
  C      -3.046142      3.902311      0.552542
  H       1.150268      2.484768      1.885928
  H       0.879721      6.141104     -0.396112
  H      -1.324686      2.236343      1.766537
  H      -1.575395      5.891633     -0.514299
  H       3.010764      5.261105      0.448727
  H       3.083762      3.805535      1.410720
  O       3.613695      2.380597      2.618023
  H       4.013130      1.529422      2.393967
  H       3.373628      2.295259      3.550551
18
Coordinates from ORCA-job 4nitroaniline_water_2 E -455.715302867000
  N       2.556983      4.455675      0.828712
  N      -4.191656      3.765156      0.501405
  C       1.201292      4.333312      0.763113
  C       0.552878      3.227051      1.367700
  C       0.402323      5.284674      0.085194
  C      -1.615776      4.038016      0.620172
  C      -0.823647      3.086837      1.296080
  C      -0.975032      5.138280      0.015902
  C      -3.036222      3.888058      0.551288
  H       1.164662      2.488639      1.889033
  H       0.880641      6.145582     -0.389616
  H      -1.307782      2.228600      1.767147
  H      -1.573705      5.883999     -0.511270
  H       3.010710      5.275606      0.453360
  H       3.093959      3.816021      1.409222
  O       3.628778      2.392754      2.606967
  H       3.819183      1.474836      2.369377
  H       3.430860      2.351455      3.552622
18
Coordinates from ORCA-job 4nitroaniline_water_2 E -455.715419918773
  N       2.568664      4.471234      0.833037
  N      -4.174435      3.738492      0.502371
  C       1.216146      4.340468      0.770707
  C       0.571625      3.236250      1.384231
  C       0.411069      5.282625      0.086906
  C      -1.600553      4.026161      0.625630
  C      -0.803388      3.085815      1.311323
  C      -0.965125      5.126309      0.016107
  C      -3.019775      3.867754      0.554602
  H       1.185424      2.510082      1.919596
  H       0.884873      6.143700     -0.392127
  H      -1.282392      2.229447      1.790859
  H      -1.568257      5.864200     -0.517100
  H       3.012375      5.299223      0.463601
  H       3.113631      3.829776      1.404950
  O       3.661761      2.399641      2.585682
  H       3.645419      1.465947      2.331353
  H       3.361389      2.357426      3.504682
18
Coordinates from ORCA-job 4nitroaniline_water_2 E -455.715551299824
  N       2.564363      4.471743      0.837049
  N      -4.179399      3.742174      0.493140
  C       1.211645      4.341328      0.772068
  C       0.564193      3.239937      1.387783
  C       0.408026      5.282448      0.084612
  C      -1.605731      4.028604      0.622339
  C      -0.810699      3.089860      1.312437
  C      -0.968041      5.126925      0.011632
  C      -3.024826      3.870780      0.548165
  H       1.175797      2.516372      1.928711
  H       0.883398      6.141897     -0.395772
  H      -1.291127      2.235398      1.793969
  H      -1.569641      5.863819     -0.524646
  H       3.007868      5.301795      0.471615
  H       3.109598      3.827694      1.406620
  O       3.663329      2.386504      2.586177
  H       3.682868      1.454459      2.323837
  H       3.396828      2.352813      3.516676
18
Coordinates from ORCA-job 4nitroaniline_water_2 E -455.715652681021
  N       2.567667      4.477489      0.843995
  N      -4.175108      3.733705      0.487998
  C       1.215262      4.344501      0.777731
  C       0.566963      3.246885      1.399385
  C       0.410519      5.279724      0.082763
  C      -1.602577      4.025858      0.624608
  C      -0.807310      3.092942      1.322023
  C      -0.964985      5.121662      0.008880
  C      -3.021004      3.864624      0.546710
  H       1.178304      2.528253      1.947068
  H       0.885542      6.136601     -0.402579
  H      -1.286564      2.240333      1.807966
  H      -1.566990      5.854011     -0.533126
  H       3.007834      5.311947      0.484212
  H       3.115411      3.830771      1.408273
  O       3.678130      2.379388      2.579209
  H       3.647617      1.454319      2.294422
  H       3.369741      2.351539      3.496872
18
Coordinates from ORCA-job 4nitroaniline_water_2 E -455.715735203946
  N       2.575666      4.481978      0.851874
  N      -4.166513      3.723475      0.491714
  C       1.223132      4.345891      0.783861
  C       0.575746      3.250596      1.409753
  C       0.416673      5.274860      0.081910
  C      -1.594700      4.020550      0.630557
  C      -0.798146      3.092447      1.332293
  C      -0.958254      5.114292      0.009126
  C      -3.012756      3.856287      0.552003
  H       1.188578      2.533589      1.958145
  H       0.890643      6.129083     -0.409150
  H      -1.275123      2.240512      1.821608
  H      -1.561424      5.842524     -0.537099
  H       3.013388      5.319567      0.496230
  H       3.125216      3.833835      1.412924
  O       3.697624      2.378233      2.577140
  H       3.580610      1.473376      2.255248
  H       3.298089      2.363453      3.458274
18
Coordinates from ORCA-job 4nitroaniline_water_2 E -455.715755725658
  N       2.575795      4.478543      0.850395
  N      -4.167371      3.727562      0.496939
  C       1.222682      4.343547      0.782027
  C       0.575936      3.246445      1.404776
  C       0.416826      5.274731      0.082670
  C      -1.594811      4.021053      0.631134
  C      -0.798437      3.090030      1.328883
  C      -0.958329      5.115649      0.011029
  C      -3.013341      3.858799      0.555252
  H       1.189215      2.525709      1.947867
  H       0.890971      6.129461     -0.407286
  H      -1.275645      2.236994      1.816031
  H      -1.561294      5.845855     -0.532754
  H       3.015921      5.313412      0.491506
  H       3.123878      3.832179      1.414959
  O       3.698403      2.383184      2.585486
  H       3.590600      1.480085      2.256529
  H       3.287452      2.371312      3.460968
18
Coordinates from ORCA-job 4nitroaniline_water_2 E -455.715765225747
  N       2.576211      4.474583      0.847084
  N      -4.167457      3.730488      0.502142
  C       1.222999      4.340680      0.779424
  C       0.577023      3.241234      1.398586
  C       0.417284      5.275298      0.084930
  C      -1.594209      4.020803      0.631436
  C      -0.797771      3.086571      1.324573
  C      -0.958135      5.117196      0.014161
  C      -3.013168      3.860398      0.558362
  H       1.190308      2.517919      1.937847
  H       0.891192      6.131656     -0.402286
  H      -1.275146      2.232309      1.809363
  H      -1.561192      5.849861     -0.526176
  H       3.018473      5.306320      0.483654
  H       3.123643      3.830455      1.415602
  O       3.705948      2.388141      2.595165
  H       3.586809      1.488099      2.260815
  H       3.275639      2.382540      3.461729
18
Coordinates from ORCA-job 4nitroaniline_water_2 E -455.715767376765
  N       2.575966      4.471482      0.844793
  N      -4.167853      3.731762      0.502934
  C       1.222767      4.339100      0.778067
  C       0.576754      3.238794      1.395865
  C       0.417259      5.275955      0.086499
  C      -1.594450      4.021236      0.631393
  C      -0.798198      3.085349      1.322576
  C      -0.958371      5.118530      0.015955
  C      -3.013532      3.861440      0.558757
  H       1.189688      2.514611      1.934444
  H       0.891163      6.133469     -0.398652
  H      -1.276006      2.230555      1.806005
  H      -1.561306      5.852645     -0.522525
  H       3.020022      5.300891      0.478212
  H       3.122322      3.828618      1.415529
  O       3.706672      2.392609      2.598551
  H       3.592840      1.491613      2.264560
  H       3.272714      2.385892      3.463445
18
Coordinates from ORCA-job 4nitroaniline_water_2 E -455.715768003631
  N       2.575699      4.470332      0.844168
  N      -4.168214      3.731729      0.501975
  C       1.222501      4.338789      0.777765
  C       0.576206      3.238374      1.395313
  C       0.417029      5.276339      0.087057
  C      -1.594881      4.021584      0.631213
  C      -0.798727      3.085265      1.322058
  C      -0.958673      5.119126      0.016461
  C      -3.013942      3.861698      0.558123
  H       1.188902      2.513994      1.933951
  H       0.890954      6.134332     -0.397224
  H      -1.276773      2.230323      1.805005
  H      -1.561521      5.853751     -0.521438
  H       3.020548      5.298884      0.476623
  H       3.121533      3.827433      1.415452
  O       3.707402      2.393715      2.598604
  H       3.594211      1.491998      2.266482
  H       3.276197      2.386885      3.464822
