! B3LYP def2-SVP OPT TightSCF D3BJ

%pal
nprocs 20
end

* xyz 0 1
N          2.73435        3.90104        0.79754
N         -4.05898        3.90123        0.79703
C          1.36786        3.90107        0.79729
C          0.64118        2.68833        0.79727
C          0.64125        5.11385        0.79724
C         -1.46586        3.90115        0.79717
C         -0.74562        2.69035        0.79721
C         -0.74556        5.11190        0.79719
C         -2.89648        3.90119        0.79709
H          1.18186        1.73826        0.79731
H          1.18197        6.06390        0.79727
H         -1.28903        1.74341        0.79718
H         -1.28892        6.05887        0.79715
H          3.25322        4.76669        0.79622
H          3.25318        3.03536        0.79624
O          2.63953        3.50567        2.05682
H          3.21608        2.93483        2.58278
H          2.59842        4.31745        2.58041
*
