! wB97X-D3 def2-TZVPP TightSCF RIJCOSX SP

%pal
nprocs 28
end

%maxcore 5000

* xyz 0 1
  C           3.34804850443552     -1.94519700693359      0.41193859737490
  C           3.64050351924908     -0.52430840409676      0.44754504070177
  C           3.22095987737777      0.24357344510280      1.52656927828692
  C           2.64544031606440     -2.53675644016349      1.45453459090499
  C           3.04932329758835     -2.30944168404381     -0.96297830114166
  C           3.50909185923282     -0.01021486997194     -0.90560241010034
  C           2.66518201095643      1.56474452241886      1.30439990421887
  C           2.47515361729242     -0.37310151315687      2.60578697296284
  C           1.61381463203490     -3.51810952007566      1.17021137748280
  C           2.19709317639264     -1.73033029999688      2.57499139588659
  C           2.06457473189463     -3.24870129414740     -1.23339111963203
  C           3.14820122068406     -1.11070415770565     -1.77577681592045
  C           2.94669931383726      1.23947597652851     -1.11374261474855
  C           1.56422758408481      1.76209445728660      2.22753769300385
  C           2.52832289511476      2.03316568146677      0.01092300887555
  C           1.44844935920696      0.56673724604612      3.02187741613803
  C           1.33260210990602     -3.86877552276736     -0.14291683593475
  C           0.52923996148873     -3.31906909792850      2.11670753949193
  C           0.88530778830425     -2.20726395287049      2.97886872188417
  C           1.13835277574185     -3.03428281936796     -2.33140120389719
  C           2.25319077947524     -0.89505450769759     -2.81330079218302
  C           1.99474268265988      1.47504055144274     -2.17938478609283
  C           0.45655657651362      2.51870468017240      1.85444199585363
  C           1.40155166883642      2.84626825957115     -0.36296603886525
  C           0.19364110019036      0.12212764639485      3.38714902803138
  C          -0.04440625007592     -4.04372325876867     -0.56941489477482
  C          -0.78711524220448     -3.48612913486323      1.70886968028302
  C          -0.08877600738520     -1.30342919597774      3.38235986047557
  C          -0.16338742820965     -3.53202875791099     -1.92305326025842
  C           1.23054507025853     -1.88274043217073     -3.10318540831751
  C           1.67280139779444      0.42261546421606     -3.02025732719935
  C           0.99284773408525      2.44448235287989     -1.72125939576899
  C           0.56242628049953      3.31518206681004      0.63554347133556
  C          -0.89656093823497      2.01044115475975      2.16727171172380
  C          -0.98646023449681      0.84212350682639      2.94066593003661
  C          -1.08061335635639     -3.86089771785327      0.33582554632894
  C          -1.80667295933887     -2.55048346780055      2.14607358815329
  C          -1.45983074241186     -1.47782166562624      2.95785158981752
  C          -1.31516291901420     -2.86441773574601     -2.31407267127870
  C           0.02656353009115     -1.17692692818068     -3.50216304377983
  C           0.30341516147634      0.24952840739233     -3.44456665831815
  C          -0.33861929947559      2.28106666013973     -2.13622507876865
  C          -1.50930453846137      3.05212362303668     -0.00157610498269
  C          -1.91678930624335      2.21299068087216      1.11882075824323
  C          -2.01451840085355     -0.15926568574500      2.70535946584011
  C          -2.28693327099672     -3.16426987137622     -0.07289570302954
  C          -2.73760599471875     -2.35863732202371      1.04776322087898
  C          -2.40244514706193     -2.67660450713446     -1.36868267478071
  C          -1.21638599112687     -1.66516085416299     -3.12683982168588
  C          -0.66290969912817      1.13990696643767     -3.00328364724752
  C          -1.51771229488429      2.48028407599623     -1.26605002478021
  C          -2.83498393361833      1.20135872420131      0.86399863718370
  C          -2.91180823813571      0.01061087269237      1.67120064392769
  C          -3.28645907075885     -1.10626427260533      0.82225661218685
  C          -2.98034256848395     -1.36578658529691     -1.60252990675569
  C          -2.23990248376811     -0.74078635820907     -2.68529120686691
  C          -1.96141151314433      0.61698036833477     -2.63338469839287
  C          -2.43749322885078      1.40467556739865     -1.52816799891324
  C          -3.15577021203103      0.82445957839026     -0.49845805399059
  C          -3.42126850079989     -0.60085688923637     -0.53020218152688
  H           1.01329409011614      5.34132406282301      4.30395558943365
  C           0.00156739839484      5.77035702293343      4.34409264491051
  H          -0.07238574528875      6.40133900191094      5.24179841778758
  H           0.42258215407076      7.43318829045760      3.00509103958484
  C          -0.27936822124758      6.59526541253677      3.10540446975576
  O          -0.07757543445639      5.81350574187095      1.91905310495681
  H          -0.72581276983927      4.95161121429238      4.44088940723858
  C          -1.06379970700738      5.00848042914969      1.54056507793129
  C          -0.60366636606848      4.18952932199605      0.32371881280598
  O          -2.14122932599482      4.93886670132572      2.05980022907743
  H          -1.30777636276340      6.98460264477705      3.10398529283496
  C          -0.39187316824964      5.19469450536460     -0.81634596780634
  H          -3.62292677217363      6.42681289912368     -2.61792360913469
  O          -1.55276626996270      5.76807755090165     -1.11073644702511
  H          -1.13730933126203      6.30313723547912     -3.06264685563800
  O           0.65257781774354      5.45567630082662     -1.34070264158112
  C          -1.54177941330081      6.75942189156959     -2.14579186714807
  C          -2.95723200459695      7.25162255228719     -2.32655833565137
  H          -2.99071383293230      8.01904750994273     -3.11280725800038
  H          -3.34136609459692      7.69097061889314     -1.39493315469239
  H          -0.85183140308268      7.56594828633510     -1.85203054721983
*
