40
Coordinates from ORCA-job honokiol_o2_9 E -997.604333438764
  O       0.171690      2.057250     -1.802720
  O      -4.093570     -1.399030      1.232660
  C       1.050350      0.444506     -0.274697
  C      -0.305395     -0.008963      0.123537
  C      -2.604710     -0.656007     -0.453420
  C      -1.339460     -0.192201     -0.812935
  C       3.494120      0.268234      0.005916
  C       2.187000     -0.132062      0.311259
  C       1.257720      1.472380     -1.224710
  C      -0.586309     -0.306190      1.466330
  C      -2.854160     -0.945741      0.902383
  C      -3.716930     -0.800485     -1.469750
  C       4.679640     -0.392949      0.686038
  C       3.663690      1.284460     -0.938877
  C      -1.842970     -0.770883      1.852320
  C       2.556440      1.878720     -1.546190
  C      -4.638150      0.394721     -1.456950
  C       4.666700     -1.892880      0.565789
  C      -5.920810      0.372055     -1.088330
  C       4.624100     -2.745810      1.592900
  H      -1.148610      0.030136     -1.863220
  H       2.042810     -0.949452      1.021550
  H       0.182952     -0.156000      2.226690
  H      -3.266380     -0.903905     -2.471510
  H      -4.296790     -1.713950     -1.267470
  H       5.607410      0.003244      0.237321
  H       4.705090     -0.115308      1.754870
  H       4.669290      1.619040     -1.208330
  H      -2.046610     -0.992006      2.905190
  H       2.698270      2.677350     -2.281970
  H      -4.175930      1.346010     -1.750680
  H       4.673210     -2.284920     -0.459296
  H       0.470608      2.763200     -2.390450
  H      -4.133630     -1.554310      2.185140
  H      -6.532080      1.279260     -1.086240
  H      -6.402140     -0.556626     -0.765117
  H       4.608970     -3.828600      1.439680
  H       4.605380     -2.389870      2.628980
  O       1.401730      4.700180     -3.368100
  O       1.398530      3.851370     -4.209730
40
Coordinates from ORCA-job honokiol_o2_9 E -997.626601214069
  O       0.170157      2.046889     -1.778664
  O      -4.080576     -1.393139      1.239487
  C       1.048289      0.448441     -0.263611
  C      -0.304829     -0.005683      0.135853
  C      -2.589686     -0.650785     -0.440372
  C      -1.329889     -0.191015     -0.795720
  C       3.473470      0.265317      0.006180
  C       2.176943     -0.129974      0.316936
  C       1.249505      1.469016     -1.211480
  C      -0.588949     -0.295509      1.469177
  C      -2.840013     -0.936830      0.905848
  C      -3.691772     -0.797840     -1.462748
  C       4.661359     -0.393890      0.677120
  C       3.637029      1.276148     -0.935941
  C      -1.839406     -0.759223      1.851570
  C       2.539980      1.872195     -1.539197
  C      -4.604194      0.398281     -1.468673
  C       4.653078     -1.888739      0.552342
  C      -5.883303      0.381303     -1.121271
  C       4.625386     -2.739798      1.569964
  H      -1.136360      0.031836     -1.838069
  H       2.033646     -0.942418      1.024243
  H       0.172416     -0.141264      2.225439
  H      -3.235664     -0.906141     -2.451556
  H      -4.273402     -1.701724     -1.263419
  H       5.577663      0.000458      0.224146
  H       4.696274     -0.121726      1.738724
  H       4.635135      1.605118     -1.208941
  H      -2.044280     -0.975623      2.897435
  H       2.675609      2.659640     -2.270803
  H      -4.139273      1.338097     -1.760796
  H       4.648150     -2.275071     -0.465462
  H       0.457041      2.757488     -2.375363
  H      -4.115792     -1.541040      2.186006
  H      -6.485489      1.283042     -1.133344
  H      -6.367429     -0.536533     -0.800915
  H       4.609320     -3.812879      1.413978
  H       4.615532     -2.389764      2.598451
  O       1.359828      4.681410     -3.300615
  O       1.345559      3.765896     -4.198077
40
Coordinates from ORCA-job honokiol_o2_9 E -997.630762306596
  O       0.175816      2.059684     -1.763426
  O      -4.078871     -1.385609      1.251920
  C       1.048028      0.458415     -0.253978
  C      -0.305847      0.003771      0.147414
  C      -2.585035     -0.648726     -0.429310
  C      -1.326292     -0.190434     -0.783765
  C       3.467207      0.263401      0.006158
  C       2.173257     -0.125730      0.322636
  C       1.246773      1.477422     -1.201936
  C      -0.593796     -0.275520      1.478946
  C      -2.836686     -0.926482      0.914459
  C      -3.679793     -0.805377     -1.457887
  C       4.658034     -0.397887      0.669265
  C       3.628080      1.272837     -0.935910
  C      -1.842500     -0.739955      1.860514
  C       2.535805      1.873883     -1.534601
  C      -4.585493      0.394228     -1.488994
  C       4.652070     -1.891005      0.536283
  C      -5.867844      0.385416     -1.162310
  C       4.638167     -2.747457      1.546859
  H      -1.129589      0.029334     -1.825396
  H       2.028190     -0.936618      1.030588
  H       0.164342     -0.112906      2.235914
  H      -3.215679     -0.926501     -2.439996
  H      -4.266547     -1.703263     -1.253256
  H       5.570295     -0.002516      0.211796
  H       4.700586     -0.131807      1.730773
  H       4.625896      1.597229     -1.214176
  H      -2.049535     -0.948968      2.906602
  H       2.658158      2.658208     -2.268095
  H      -4.113054      1.327514     -1.785969
  H       4.636033     -2.271064     -0.482760
  H       0.454289      2.772347     -2.368188
  H      -4.112073     -1.522176      2.199874
  H      -6.465200      1.288771     -1.193483
  H      -6.359703     -0.525999     -0.838568
  H       4.621416     -3.818554      1.384063
  H       4.637423     -2.404237      2.576669
  O       1.317646      4.635571     -3.233993
  O       1.287090      3.694728     -4.146874
40
Coordinates from ORCA-job honokiol_o2_9 E -997.634021087217
  O       0.181394      2.067985     -1.757302
  O      -4.079683     -1.381389      1.254210
  C       1.048944      0.466982     -0.247121
  C      -0.305625      0.012004      0.155194
  C      -2.582367     -0.644390     -0.425797
  C      -1.323206     -0.185339     -0.777889
  C       3.466413      0.264422      0.006773
  C       2.172853     -0.120778      0.327768
  C       1.244583      1.484290     -1.197231
  C      -0.597129     -0.262938      1.486092
  C      -2.835225     -0.920237      0.916323
  C      -3.672487     -0.802567     -1.459301
  C       4.659629     -0.396119      0.665807
  C       3.625280      1.271558     -0.938458
  C      -1.845611     -0.729763      1.865233
  C       2.534921      1.874602     -1.534622
  C      -4.571177      0.401652     -1.503601
  C       4.658312     -1.888405      0.525735
  C      -5.857800      0.398855     -1.195044
  C       4.658411     -2.750925      1.530908
  H      -1.123218      0.036817     -1.818638
  H       2.026097     -0.929085      1.038351
  H       0.158891     -0.096589      2.244489
  H      -3.202702     -0.930704     -2.437806
  H      -4.265204     -1.695933     -1.253382
  H       5.569532      0.002122      0.206110
  H       4.706120     -0.135185      1.728241
  H       4.623344      1.592238     -1.221413
  H      -2.054681     -0.936596      2.911229
  H       2.637014      2.655520     -2.273582
  H      -4.089989      1.331759     -1.796198
  H       4.633271     -2.262941     -0.495144
  H       0.451407      2.780888     -2.373509
  H      -4.111821     -1.509292      2.203291
  H      -6.450094      1.305132     -1.235070
  H      -6.358247     -0.509552     -0.876307
  H       4.644095     -3.820996      1.361886
  H       4.665078     -2.413930      2.562708
  O       1.260564      4.545964     -3.154760
  O       1.211179      3.584832     -4.070310
40
Coordinates from ORCA-job honokiol_o2_9 E -997.636221922971
  O       0.180617      2.065515     -1.759409
  O      -4.082768     -1.380613      1.254550
  C       1.046864      0.472483     -0.244049
  C      -0.306903      0.015358      0.159601
  C      -2.583226     -0.641848     -0.424376
  C      -1.323294     -0.182213     -0.775024
  C       3.464446      0.271046      0.007239
  C       2.171469     -0.113526      0.331559
  C       1.237096      1.487917     -1.198626
  C      -0.600038     -0.259321      1.490470
  C      -2.836504     -0.918413      0.917009
  C      -3.671861     -0.796515     -1.459983
  C       4.659738     -0.385701      0.665411
  C       3.621401      1.275876     -0.942357
  C      -1.848801     -0.727909      1.868215
  C       2.532144      1.877762     -1.539703
  C      -4.558647      0.416135     -1.513365
  C       4.669168     -1.877119      0.514861
  C      -5.850275      0.423419     -1.225002
  C       4.685951     -2.748202      1.512930
  H      -1.121345      0.045349     -1.814134
  H       2.024931     -0.918839      1.045796
  H       0.155246     -0.091813      2.249497
  H      -3.199797     -0.933512     -2.436236
  H      -4.273859     -1.683008     -1.251267
  H       5.568057      0.020299      0.208862
  H       4.704365     -0.132182      1.729892
  H       4.620111      1.594729     -1.226733
  H      -2.058543     -0.935051      2.914009
  H       2.617890      2.657895     -2.286256
  H      -4.064122      1.342479     -1.795402
  H       4.637577     -2.243878     -0.508770
  H       0.453171      2.773797     -2.387805
  H      -4.114337     -1.500075      2.204749
  H      -6.433848      1.335121     -1.270804
  H      -6.363826     -0.481534     -0.917366
  H       4.679187     -3.816989      1.335189
  H       4.697989     -2.419799      2.547545
  O       1.223110      4.420001     -3.059392
  O       1.152532      3.446846     -3.973465
40
Coordinates from ORCA-job honokiol_o2_9 E -997.636555547770
  O       0.180138      2.067728     -1.767136
  O      -4.081712     -1.380632      1.257648
  C       1.045553      0.478268     -0.243455
  C      -0.308065      0.022106      0.160808
  C      -2.583917     -0.639975     -0.422002
  C      -1.325100     -0.177216     -0.773487
  C       3.463769      0.274661      0.009454
  C       2.170101     -0.106833      0.334572
  C       1.235823      1.492086     -1.201554
  C      -0.600440     -0.253110      1.492287
  C      -2.836444     -0.916579      0.919950
  C      -3.673092     -0.797689     -1.456495
  C       4.657764     -0.383376      0.668551
  C       3.622288      1.277188     -0.942967
  C      -1.848419     -0.723770      1.870789
  C       2.534113      1.879493     -1.541556
  C      -4.557044      0.416837     -1.515477
  C       4.671600     -1.873925      0.508455
  C      -5.851589      0.426182     -1.239268
  C       4.694828     -2.751745      1.500842
  H      -1.123646      0.050220     -1.812819
  H       2.022535     -0.910424      1.050760
  H       0.155094     -0.084654      2.250900
  H      -3.201675     -0.941104     -2.432347
  H      -4.277300     -1.681579     -1.242801
  H       5.567327      0.027615      0.218579
  H       4.697678     -0.136806      1.735004
  H       4.621988      1.593677     -1.226860
  H      -2.057237     -0.931213      2.916812
  H       2.619165      2.658952     -2.288091
  H      -4.057559      1.342819     -1.790477
  H       4.637945     -2.233959     -0.517626
  H       0.458807      2.774837     -2.406223
  H      -4.114280     -1.495421      2.208513
  H      -6.433112      1.339177     -1.288734
  H      -6.370062     -0.478505     -0.938656
  H       4.691567     -3.819458      1.315957
  H       4.708877     -2.430212      2.537719
  O       1.220836      4.373806     -3.024880
  O       1.133964      3.406496     -3.936830
40
Coordinates from ORCA-job honokiol_o2_9 E -997.636774852479
  O       0.173801      2.055272     -1.775818
  O      -4.081861     -1.383370      1.257990
  C       1.045011      0.476116     -0.244084
  C      -0.307989      0.018963      0.159863
  C      -2.585193     -0.640854     -0.421652
  C      -1.326530     -0.177871     -0.773757
  C       3.463860      0.276683      0.014377
  C       2.169923     -0.105435      0.337540
  C       1.234197      1.487729     -1.205877
  C      -0.599289     -0.258868      1.491458
  C      -2.836844     -0.920379      0.920460
  C      -3.676963     -0.794175     -1.454128
  C       4.656539     -0.379642      0.677519
  C       3.623194      1.277459     -0.940026
  C      -1.847064     -0.730053      1.870413
  C       2.535424      1.876980     -1.542659
  C      -4.556442      0.423778     -1.510843
  C       4.677943     -1.869349      0.509272
  C      -5.852757      0.436321     -1.242162
  C       4.704167     -2.752539      1.497091
  H      -1.126558      0.052453     -1.812842
  H       2.022426     -0.907433      1.055723
  H       0.157043     -0.091985      2.249740
  H      -3.208335     -0.939764     -2.431219
  H      -4.284304     -1.675764     -1.239111
  H       5.567555      0.038051      0.236342
  H       4.688166     -0.138916      1.745775
  H       4.623473      1.594807     -1.221372
  H      -2.054926     -0.939446      2.916416
  H       2.626519      2.656934     -2.288727
  H      -4.051833      1.349654     -1.777265
  H       4.647751     -2.223835     -0.518974
  H       0.453009      2.759779     -2.423913
  H      -4.115533     -1.497624      2.208963
  H      -6.430910      1.351694     -1.289855
  H      -6.376487     -0.468354     -0.950218
  H       4.706909     -3.819362      1.306328
  H       4.714747     -2.436585      2.535855
  O       1.219307      4.367481     -3.033783
  O       1.119920      3.405416     -3.944978
40
Coordinates from ORCA-job honokiol_o2_9 E -997.637442113446
  O       0.160697      2.033187     -1.790519
  O      -4.079378     -1.381140      1.270474
  C       1.044447      0.479762     -0.242798
  C      -0.307493      0.022139      0.162007
  C      -2.584802     -0.645072     -0.413467
  C      -1.327922     -0.180137     -0.769396
  C       3.463154      0.282701      0.028415
  C       2.168020     -0.094928      0.348840
  C       1.232507      1.484454     -1.215263
  C      -0.597001     -0.253300      1.495463
  C      -2.836013     -0.919920      0.930983
  C      -3.680477     -0.800586     -1.441362
  C       4.649961     -0.377117      0.697437
  C       3.626404      1.278096     -0.931366
  C      -1.843528     -0.725216      1.878034
  C       2.541993      1.875799     -1.542405
  C      -4.548803      0.424758     -1.508907
  C       4.684796     -1.863059      0.498304
  C      -5.851291      0.446818     -1.270477
  C       4.719072     -2.766274      1.468058
  H      -1.130446      0.047554     -1.809435
  H       2.018464     -0.892613      1.071783
  H       0.159737     -0.082457      2.252621
  H      -3.217040     -0.962963     -2.418817
  H      -4.295658     -1.673906     -1.214168
  H       5.566078      0.056631      0.282166
  H       4.661097     -0.158976      1.771194
  H       4.628882      1.594293     -1.206704
  H      -2.049760     -0.931313      2.925377
  H       2.657043      2.661042     -2.281205
  H      -4.029913      1.348040     -1.757458
  H       4.658093     -2.195958     -0.537425
  H       0.438675      2.719305     -2.470508
  H      -4.118239     -1.482296      2.222872
  H      -6.421410      1.366947     -1.327282
  H      -6.389780     -0.455319     -0.997033
  H       4.732694     -3.829037      1.255137
  H       4.726038     -2.471758      2.513349
  O       1.228860      4.360815     -3.037404
  O       1.053306      3.414974     -3.941255
40
Coordinates from ORCA-job honokiol_o2_9 E -997.638670014971
  O       0.146725      2.003627     -1.810996
  O      -4.077424     -1.374293      1.284473
  C       1.044633      0.481594     -0.245589
  C      -0.306407      0.023404      0.160391
  C      -2.584847     -0.650015     -0.406002
  C      -1.329442     -0.185847     -0.767568
  C       3.462530      0.289064      0.043948
  C       2.165809     -0.085816      0.357868
  C       1.231441      1.479592     -1.228874
  C      -0.594067     -0.246211      1.496299
  C      -2.835333     -0.917440      0.941317
  C      -3.685450     -0.807149     -1.428397
  C       4.642210     -0.373787      0.721203
  C       3.630073      1.280827     -0.919072
  C      -1.839303     -0.717323      1.884201
  C       2.550375      1.875638     -1.541974
  C      -4.542115      0.425677     -1.506414
  C       4.694987     -1.854518      0.486709
  C      -5.849665      0.458341     -1.296789
  C       4.735394     -2.780340      1.435099
  H      -1.135009      0.036822     -1.809136
  H       2.013206     -0.878844      1.085673
  H       0.163363     -0.070087      2.251709
  H      -3.228838     -0.986663     -2.406582
  H      -4.308601     -1.671637     -1.188725
  H       5.563536      0.078454      0.337474
  H       4.628368     -0.182120      1.800177
  H       4.634904      1.598852     -1.184252
  H      -2.043397     -0.917805      2.933379
  H       2.698346      2.669462     -2.268400
  H      -4.009290      1.345479     -1.738924
  H       4.677670     -2.162076     -0.557194
  H       0.423401      2.657002     -2.534538
  H      -4.122175     -1.458317      2.238344
  H      -6.411137      1.383338     -1.362883
  H      -6.402643     -0.440247     -1.039955
  H       4.763772     -3.837572      1.196627
  H       4.732824     -2.511004      2.487370
  O       1.249702      4.352659     -3.035503
  O       0.962940      3.423248     -3.916632
40
Coordinates from ORCA-job honokiol_o2_9 E -997.639954243316
  O       0.142178      1.998302     -1.817943
  O      -4.075875     -1.365359      1.295992
  C       1.045021      0.486315     -0.246763
  C      -0.306177      0.029562      0.160443
  C      -2.584209     -0.651754     -0.399796
  C      -1.329952     -0.187848     -0.765330
  C       3.462237      0.290512      0.050759
  C       2.163967     -0.080150      0.361998
  C       1.232298      1.481675     -1.234914
  C      -0.593314     -0.232409      1.498362
  C      -2.834819     -0.910064      0.949792
  C      -3.685879     -0.816364     -1.419884
  C       4.637623     -0.376765      0.730613
  C       3.633138      1.281032     -0.912897
  C      -1.837759     -0.702492      1.890242
  C       2.556825      1.877850     -1.540338
  C      -4.539409      0.417853     -1.509865
  C       4.697809     -1.854167      0.476344
  C      -5.849533      0.453608     -1.316872
  C       4.741206     -2.792209      1.412654
  H      -1.136643      0.027251     -1.808550
  H       2.008427     -0.871361      1.091319
  H       0.164040     -0.050435      2.252528
  H      -3.231132     -1.007614     -2.396896
  H      -4.311327     -1.676743     -1.171164
  H       5.561722      0.083750      0.363341
  H       4.611794     -0.200370      1.812029
  H       4.639516      1.598612     -1.173142
  H      -2.041022     -0.896376      2.940945
  H       2.723972      2.677407     -2.257283
  H      -4.001724      1.336077     -1.737837
  H       4.683559     -2.147604     -0.571716
  H       0.418116      2.630544     -2.570923
  H      -4.124023     -1.436636      2.250757
  H      -6.408630      1.379352     -1.392612
  H      -6.407784     -0.443292     -1.065174
  H       4.775097     -3.846105      1.160246
  H       4.735447     -2.536781      2.468421
  O       1.271165      4.355309     -3.027741
  O       0.905119      3.431855     -3.881280
40
Coordinates from ORCA-job honokiol_o2_9 E -997.642706867294
  O       0.125861      1.985976     -1.828473
  O      -4.071613     -1.348766      1.318162
  C       1.046297      0.497011     -0.248132
  C      -0.305051      0.043815      0.161684
  C      -2.582645     -0.651340     -0.386535
  C      -1.331126     -0.186141     -0.759237
  C       3.461430      0.295422      0.071535
  C       2.159348     -0.066366      0.374295
  C       1.231927      1.484776     -1.250122
  C      -0.590774     -0.205728      1.503032
  C      -2.832824     -0.895926      0.966843
  C      -3.687636     -0.826870     -1.401360
  C       4.625518     -0.379644      0.761292
  C       3.641157      1.279821     -0.896644
  C      -1.833146     -0.675711      1.902213
  C       2.574277      1.879245     -1.539668
  C      -4.533426      0.410986     -1.512800
  C       4.713377     -1.846040      0.452816
  C      -5.849955      0.451393     -1.366804
  C       4.764823     -2.816707      1.355407
  H      -1.141434      0.020701     -1.804787
  H       1.996243     -0.851459      1.109113
  H       0.166703     -0.013926      2.254717
  H      -3.237982     -1.040803     -2.376547
  H      -4.318848     -1.678289     -1.136007
  H       5.555374      0.106634      0.443069
  H       4.562621     -0.246628      1.847801
  H       4.651566      1.594456     -1.145936
  H      -2.034076     -0.859701      2.955490
  H       2.792553      2.685720     -2.241382
  H      -3.983878      1.327931     -1.717794
  H       4.713211     -2.100369     -0.605787
  H       0.396773      2.565063     -2.664206
  H      -4.128054     -1.392994      2.274236
  H      -6.403174      1.379268     -1.459621
  H      -6.421154     -0.444253     -1.139350
  H       4.819484     -3.860305      1.065306
  H       4.744145     -2.599746      2.419827
  O       1.325433      4.334858     -3.044996
  O       0.729739      3.398606     -3.762790
