! B3LYP def2-SVP OPT TightSCF D3BJ


%maxcore 2000

%pal
nprocs 20
end

* xyz 0 1
N       -2.3947729961     -0.0001474642      0.0025915561                 
C       -1.0200608510     -0.0000289878      0.0010976808                 
C       -0.2945157800      1.2101059748      0.0007086406                 
C       -0.2943079148     -1.2100407791      0.0007349659                 
C        1.0991996843      1.2029432329      0.0000689553                 
C        1.0994069845     -1.2026382846      0.0000976501                 
C        1.8128645108      0.0002133039     -0.0002414326                 
H       -0.8369807370      2.1600809974      0.0010002733                 
H       -0.8366059466     -2.1601114428      0.0010469186                 
H        1.6355670952      2.1558960203     -0.0002260275                 
H        1.6359340076     -2.1555013744     -0.0001741080                 
H        2.9047834001      0.0003104149     -0.0007757069                 
H       -2.9122831349     -0.8657023728     -0.0032016159                 
H       -2.9124283218      0.8653207617     -0.0032277497                 
O       -2.9580995839      0.0683457361      2.8517910585                 
H       -2.1780277215      0.0329754620      3.4219896933                 
H       -2.5786623702      0.0901756436      1.9627601783                 
*         
          