! B3LYP def2-SVP SP TightSCF ALLPOP KEEPDENS ChelpG

%maxcore 5000

%pal
nprocs 20
end

* xyz 0 1
  N           3.23655236113662     -0.00008116967729      0.00037702054200
  N          -3.55678562134386      0.00011125254860     -0.00013352374286
  C           1.87005649136252     -0.00004657154740      0.00012351139967
  C           1.14338320133126     -1.21278736505736      0.00009997082512
  C           1.14344533089269      1.21273138982742      0.00007766818565
  C          -0.96365858559919      0.00002494456715     -0.00000063504473
  C          -0.24342305285815     -1.21076675992900      0.00004065618982
  C          -0.24336060686978      1.21078150597486      0.00002251731249
  C          -2.39428142401512      0.00006588854376     -0.00007380863744
  H           1.68405869858839     -2.16285895134487      0.00014075138258
  H           1.68417007126403      2.16277548506582      0.00010178647620
  H          -0.78683101528983     -2.15770780238853      0.00001580329737
  H          -0.78672547498727      2.15774700620916     -0.00001662108415
  H           3.75542186318903      0.86556992910989     -0.00094530208954
  H           3.75537776319864     -0.86575878190220     -0.00092979501218
*
