! wB97X-D3 def2-TZVPP TightSCF RIJCOSX SP

%pal
nprocs 28
end

%maxcore 3500


* xyz -1 2
  O           0.26478878684805      1.80678309074617     -2.06162136276599
  O          -4.08097294748948     -1.38728777806049      1.32936595804743
  C           1.05320748290041      0.33218967545511     -0.34059402851511
  C          -0.31319170623515     -0.09288902835303      0.07700812082236
  C          -2.64991261401223     -0.65067266496506     -0.41139657442445
  C          -1.38488195647968     -0.22018821417370     -0.81667596758308
  C           3.45841230132820      0.25283804041327      0.13748622096901
  C           2.14636994000656     -0.17762528060423      0.36586086882033
  C           1.30898383622235      1.27890052409909     -1.35297358035576
  C          -0.53081731826083     -0.41600023236575      1.42761141318639
  C          -2.84348107469314     -0.96144836907597      0.94062352840164
  C          -3.80614405567030     -0.75092752752891     -1.38247230126788
  C           4.55583393609718     -0.29563405747252      1.02860029996600
  C           3.68469356812675      1.18979773726450     -0.86731213644940
  C          -1.78702696449216     -0.84412551440348      1.84361663904927
  C           2.61612895882211      1.68871218883768     -1.61607908149051
  C          -4.68649369240998      0.47051938312701     -1.34439642782695
  C           4.97694614157878     -1.69750167642403      0.66268272524845
  C          -5.97007221441670      0.48659287952313     -0.98692108192403
  C           4.60917337102637     -2.78102881849191      1.34801516353830
  H          -1.22995599878761      0.01881610934269     -1.87109165227441
  H           1.97881741753660     -0.94173373856986      1.14643893264137
  H           0.28540071996466     -0.32460480427760      2.16862455435824
  H          -3.40006878501846     -0.86711992448465     -2.40147206919258
  H          -4.41003946405540     -1.64496840243686     -1.16247733204104
  H           5.43073332085342      0.37708078058734      0.98856465619266
  H           4.17083861111945     -0.29835313155648      2.06051088278738
  H           4.69908974283022      1.55080329477486     -1.06891494091026
  H          -1.94313003399142     -1.09844947616494      2.89850143616932
  H           2.79421754201581      2.43049067011609     -2.40434932050825
  H          -4.19147149629927      1.41327299784300     -1.61255671586403
  H           5.58942592150791     -1.80070221949072     -0.24513625451492
  H           0.61807047414784      2.47998931658340     -2.64918439578981
  H          -4.04556612004175     -1.57632372789989      2.27137550081998
  H          -6.54673525956670      1.41594597828893     -0.96412679469045
  H          -6.48432301481845     -0.43078874937402     -0.68201649834658
  H           4.92027059577757     -3.78016940501845      1.02329937546944
  H           3.94042743175323     -2.68673227743038      2.21693441754347
  O           2.08034629492380     -1.80638353632916      2.87762550072804
  O           1.85635432135147     -0.64954611205016      3.44748332197639
*
