! wB97X-D3 def2-TZVPP TightSCF RIJCOSX SP

%pal
nprocs 28
end

%maxcore 5000

* xyz 0 1
  O           0.66682257536022      3.32136578460567     -0.04006185996138
  O          -4.34542734981792     -0.24145515781635      1.28118425438153
  C           1.07886970867755      1.00077002099324      0.27016870142815
  C          -0.36042824522005      0.72571571862680      0.53322188052572
  C          -2.31672020401728     -0.70944272029050      0.17134057523420
  C          -0.98470666642384     -0.37765576102888     -0.06593962022539
  C           3.36611891832958      0.13967302626302      0.00560137987693
  C           2.00634108613910     -0.04413353773989      0.27712763382446
  C           1.55303077686770      2.29579045496292     -0.02161838971257
  C          -1.12433096733100      1.51705775549572      1.39664916407750
  C          -3.05506217521853      0.09939437802395      1.05012736985386
  C          -2.98913982202573     -1.87192970565432     -0.52375896938130
  C           4.31965393335137     -1.03905737195672      0.04044157914734
  C           3.80224874772150      1.43101737673388     -0.28530680659103
  C          -2.45478706910594      1.20416624286237      1.65622355005236
  C           2.90570471085851      2.49747879309090     -0.29578469998319
  C          -3.80399060534295     -1.42542074475187     -1.71092391154779
  C           3.88975707430927     -2.16539189820768     -0.85926390386943
  C          -5.12566319508118     -1.54571820139412     -1.82045115188140
  C           3.61160582986809     -3.40490751358096     -0.45627481936959
  H          -0.40919850111866     -1.00043150276166     -0.75819683971732
  H           1.64947421567528     -1.05102863174057      0.51463287812061
  H          -0.67349888704084      2.38715651750499      1.87625384312586
  H          -2.21339549972201     -2.57910054377649     -0.86021213199474
  H          -3.63668257374476     -2.40824608478311      0.18622906250593
  H           5.32197408912867     -0.69343347921597     -0.26300915477992
  H           4.41763822118247     -1.41354052811986      1.07351539845508
  H           4.85776776349832      1.61661304738454     -0.50444081828580
  H          -3.03930156989854      1.82733934312377      2.34102987293219
  H           3.25937116575767      3.50695159607418     -0.53035977107256
  H          -3.23854916252000     -0.94875229642524     -2.52211364300274
  H           3.79033219437747     -1.91267059837625     -1.92266080640305
  H           1.12234568285361      4.12826699649769     -0.29743856468011
  H          -4.74281341635792      0.39526089332308      1.88227388052648
  H          -5.65929410962331     -1.19152251141149     -2.70648461078273
  H          -5.72319048135719     -1.99539377996614     -1.02111592548902
  H           3.29853178705123     -4.17855864191031     -1.16229261077110
  H           3.68939201996006     -3.69382673465834      0.59738798543398
*
