38
Coordinates from ORCA-job honokiol_2 E -846.316569814226
  O       0.290400      2.691800     -1.032200
  O      -4.310700     -0.425900      1.635600
  C       0.963600      0.699000      0.131200
  C      -0.399900      0.405600      0.515700
  C      -2.519700     -0.660100      0.059700
  C      -1.205200     -0.377600     -0.311400
  C       3.306500      0.101700      0.168800
  C       1.985600     -0.164600      0.529600
  C       1.267100      1.829800     -0.629400
  C      -0.909200      0.906200      1.713700
  C      -3.029200     -0.159500      1.257900
  C      -3.367800     -1.500000     -0.837500
  C       4.397200     -0.821800      0.595400
  C       3.607800      1.231800     -0.591000
  C      -2.223700      0.623500      2.084900
  C       2.588100      2.095900     -0.990000
  C      -4.133300     -0.690300     -1.850800
  C       4.659500     -1.923700     -0.398400
  C      -5.468400     -0.635600     -1.915400
  C       4.501100     -3.226000     -0.136400
  H      -0.810100     -0.767600     -1.247500
  H       1.756000     -1.048700      1.121600
  H      -0.295000      1.518500      2.369800
  H      -2.735100     -2.215500     -1.379600
  H      -4.044800     -2.126500     -0.242500
  H       5.327400     -0.256900      0.739700
  H       4.161100     -1.237800      1.583800
  H       4.632500      1.450000     -0.880100
  H      -2.607500      1.020000      3.021100
  H       2.837900      2.972500     -1.581900
  H      -3.555900     -0.129600     -2.582000
  H       5.015000     -1.633100     -1.384000
  H       0.693100      3.411900     -1.547000
  H      -4.485500      0.003700      2.490400
  H      -5.957700     -0.037600     -2.676300
  H      -6.092200     -1.180400     -1.215500
  H       4.715600     -3.969400     -0.896200
  H       4.156200     -3.571300      0.831900
38
Coordinates from ORCA-job honokiol_2 E -846.323463075034
  O       0.301524      2.671823     -1.028605
  O      -4.331238     -0.464744      1.580342
  C       0.995966      0.716609      0.129520
  C      -0.406433      0.419554      0.514212
  C      -2.532970     -0.678795      0.048552
  C      -1.215077     -0.375777     -0.304420
  C       3.362558      0.122392      0.183273
  C       2.032587     -0.133060      0.530301
  C       1.304404      1.843625     -0.638714
  C      -0.936978      0.920396      1.704528
  C      -3.049355     -0.168833      1.241820
  C      -3.400731     -1.519082     -0.856308
  C       4.460316     -0.827517      0.606430
  C       3.652271      1.251448     -0.584821
  C      -2.249857      0.626114      2.068454
  C       2.631061      2.107464     -0.994057
  C      -4.188736     -0.692613     -1.839304
  C       4.687192     -1.938799     -0.385324
  C      -5.520606     -0.629546     -1.878393
  C       4.513782     -3.235664     -0.123564
  H      -0.808201     -0.771945     -1.238068
  H       1.795066     -1.018511      1.125074
  H      -0.326797      1.545035      2.361018
  H      -2.766332     -2.226235     -1.417529
  H      -4.081266     -2.142699     -0.256601
  H       5.404165     -0.270074      0.735161
  H       4.227722     -1.251203      1.596289
  H       4.683797      1.474734     -0.870572
  H      -2.649944      1.024647      3.006248
  H       2.877377      2.989358     -1.593937
  H      -3.611583     -0.099352     -2.559199
  H       5.006480     -1.643171     -1.392266
  H       0.676078      3.390628     -1.542870
  H      -4.534934     -0.046507      2.420107
  H      -6.029437     -0.004211     -2.616945
  H      -6.138759     -1.191887     -1.172160
  H       4.687711     -3.990121     -0.895245
  H       4.189977     -3.581084      0.863272
38
Coordinates from ORCA-job honokiol_2 E -846.324599094795
  O       0.304768      2.655918     -1.032050
  O      -4.328808     -0.496543      1.531151
  C       1.015505      0.720297      0.121386
  C      -0.399847      0.419941      0.502499
  C      -2.523770     -0.695103      0.023240
  C      -1.206827     -0.378223     -0.314846
  C       3.392252      0.134938      0.187857
  C       2.058648     -0.118332      0.522435
  C       1.323685      1.850179     -0.649228
  C      -0.942929      0.915371      1.689523
  C      -3.046814     -0.184463      1.218319
  C      -3.400046     -1.523377     -0.891402
  C       4.489968     -0.823302      0.611318
  C       3.672900      1.266206     -0.580997
  C      -2.254072      0.613491      2.047391
  C       2.651272      2.116555     -0.996707
  C      -4.226647     -0.669626     -1.817507
  C       4.677667     -1.953836     -0.365793
  C      -5.557902     -0.621676     -1.823378
  C       4.504772     -3.244362     -0.081906
  H      -0.791843     -0.772020     -1.247864
  H       1.815534     -1.004086      1.117516
  H      -0.335776      1.544366      2.345812
  H      -2.761275     -2.195531     -1.489705
  H      -4.063444     -2.166907     -0.294436
  H       5.440007     -0.269835      0.710680
  H       4.266377     -1.235313      1.608473
  H       4.706145      1.496489     -0.858470
  H      -2.665667      1.007583      2.982993
  H       2.891626      3.001262     -1.596254
  H      -3.667620     -0.031491     -2.514908
  H       4.956957     -1.668146     -1.388794
  H       0.659970      3.384304     -1.549045
  H      -4.556553     -0.085035      2.369275
  H      -6.097128      0.028179     -2.518773
  H      -6.152328     -1.225064     -1.129119
  H       4.646577     -4.015178     -0.844800
  H       4.215464     -3.575231      0.921816
38
Coordinates from ORCA-job honokiol_2 E -846.324850497009
  O       0.303957      2.648644     -1.034865
  O      -4.320443     -0.517666      1.500696
  C       1.025765      0.716454      0.112434
  C      -0.390122      0.412060      0.490352
  C      -2.513536     -0.701214     -0.003763
  C      -1.196529     -0.381338     -0.331986
  C       3.406724      0.142110      0.183717
  C       2.072066     -0.115847      0.511621
  C       1.330300      1.852390     -0.655659
  C      -0.937325      0.899588      1.678133
  C      -3.039074     -0.197341      1.196844
  C      -3.392919     -1.516669     -0.926522
  C       4.505457     -0.813987      0.607441
  C       3.680717      1.277916     -0.580135
  C      -2.248824      0.594925      2.031656
  C       2.656931      2.125023     -0.996953
  C      -4.253627     -0.641802     -1.800949
  C       4.658170     -1.968610     -0.347233
  C      -5.584915     -0.614214     -1.779271
  C       4.495780     -3.251908     -0.028199
  H      -0.778473     -0.768744     -1.266659
  H       1.827636     -1.003588      1.103804
  H      -0.329936      1.525537      2.337058
  H      -2.751451     -2.151841     -1.559930
  H      -4.034866     -2.186713     -0.335556
  H       5.459334     -0.262848      0.670048
  H       4.298716     -1.202309      1.617460
  H       4.713977      1.515103     -0.852019
  H      -2.665598      0.980882      2.968084
  H       2.891572      3.013571     -1.592641
  H      -3.714318      0.031009     -2.480792
  H       4.899776     -1.703264     -1.385031
  H       0.647843      3.384196     -1.550146
  H      -4.558698     -0.113794      2.340053
  H      -6.151096      0.052932     -2.435197
  H      -6.156008     -1.253892     -1.098334
  H       4.610505     -4.042818     -0.774384
  H       4.243334     -3.559536      0.992525
38
Coordinates from ORCA-job honokiol_2 E -846.324960536670
  O       0.300458      2.650321     -1.024864
  O      -4.312603     -0.528567      1.483493
  C       1.031884      0.712341      0.108167
  C      -0.380871      0.403229      0.484199
  C      -2.505727     -0.701765     -0.022565
  C      -1.187545     -0.384545     -0.344089
  C       3.415459      0.148393      0.174615
  C       2.081066     -0.117543      0.500465
  C       1.331035      1.856902     -0.652338
  C      -0.929145      0.884646      1.673329
  C      -3.031962     -0.204128      1.182340
  C      -3.385405     -1.511838     -0.948326
  C       4.516712     -0.805498      0.591435
  C       3.683100      1.291713     -0.578893
  C      -2.242404      0.580984      2.022790
  C       2.655742      2.138138     -0.989804
  C      -4.264542     -0.628221     -1.796276
  C       4.629854     -1.984963     -0.338302
  C      -5.595498     -0.610385     -1.758575
  C       4.479618     -3.259550      0.019260
  H      -0.768076     -0.767429     -1.280006
  H       1.838248     -1.010618      1.085328
  H      -0.320630      1.506372      2.335025
  H      -2.742192     -2.124953     -1.600468
  H      -4.013855     -2.197555     -0.360611
  H       5.475121     -0.259775      0.610135
  H       4.335838     -1.165880      1.616595
  H       4.715256      1.535606     -0.848540
  H      -2.661982      0.960517      2.960203
  H       2.884532      3.032770     -1.578050
  H      -3.735376      0.057115     -2.471092
  H       4.831989     -1.744021     -1.390070
  H       0.637060      3.393361     -1.534566
  H      -4.555827     -0.129475      2.323917
  H      -6.176411      0.062336     -2.395145
  H      -6.153999     -1.264140     -1.081066
  H       4.564744     -4.070883     -0.708267
  H       4.267132     -3.540615      1.056319
38
Coordinates from ORCA-job honokiol_2 E -846.325042498540
  O       0.297135      2.663418     -1.001829
  O      -4.303103     -0.539409      1.474382
  C       1.037078      0.712452      0.106065
  C      -0.372010      0.397474      0.480846
  C      -2.496886     -0.702442     -0.034760
  C      -1.178429     -0.385686     -0.353136
  C       3.422355      0.156284      0.158555
  C       2.089059     -0.118917      0.485020
  C       1.330477      1.868423     -0.640927
  C      -0.920199      0.872341      1.672098
  C      -3.023144     -0.212151      1.173845
  C      -3.375170     -1.510846     -0.962309
  C       4.526494     -0.797953      0.562984
  C       3.684178      1.309764     -0.579855
  C      -2.234405      0.567437      2.019212
  C       2.652776      2.158744     -0.977427
  C      -4.263586     -0.625412     -1.799510
  C       4.589936     -2.006350     -0.333894
  C      -5.594204     -0.611408     -1.752927
  C       4.447129     -3.268246      0.069057
  H      -0.758303     -0.763585     -1.290601
  H       1.849707     -1.020187      1.058417
  H      -0.311041      1.490155      2.336723
  H      -2.730076     -2.111190     -1.623879
  H      -3.995044     -2.206454     -0.377064
  H       5.490693     -0.263741      0.527521
  H       4.381060     -1.123524      1.605374
  H       4.714675      1.559980     -0.849514
  H      -2.655518      0.940722      2.958262
  H       2.876056      3.061660     -1.554715
  H      -3.739058      0.062484     -2.474985
  H       4.749985     -1.797434     -1.399403
  H       0.628996      3.414730     -1.502419
  H      -4.548923     -0.142949      2.315326
  H      -6.182622      0.061727     -2.381942
  H      -6.146570     -1.269037     -1.074400
  H       4.495162     -4.103095     -0.634635
  H       4.276138     -3.515378      1.122145
38
Coordinates from ORCA-job honokiol_2 E -846.325157352766
  O       0.293216      2.704681     -0.937371
  O      -4.281463     -0.568654      1.460613
  C       1.048312      0.720347      0.103083
  C      -0.355093      0.391736      0.475780
  C      -2.476096     -0.707715     -0.053193
  C      -1.158728     -0.385440     -0.368060
  C       3.435483      0.173160      0.114974
  C       2.105381     -0.118610      0.446248
  C       1.331156      1.901782     -0.609298
  C      -0.903813      0.851595      1.671982
  C      -3.003426     -0.233050      1.161438
  C      -3.350176     -1.513712     -0.985982
  C       4.544261     -0.787455      0.487397
  C       3.686869      1.349383     -0.587762
  C      -2.217886      0.538897      2.015852
  C       2.648380      2.208304     -0.947933
  C      -4.250342     -0.627884     -1.811191
  C       4.493976     -2.055721     -0.323521
  C      -5.580365     -0.618544     -1.753098
  C       4.363804     -3.282434      0.179963
  H      -0.737007     -0.751730     -1.309142
  H       1.873824     -1.039106      0.991302
  H      -0.295603      1.463755      2.342529
  H      -2.701124     -2.095441     -1.659863
  H      -3.957650     -2.225025     -0.406689
  H       5.515274     -0.289660      0.328784
  H       4.485716     -1.034225      1.559873
  H       4.713645      1.610576     -0.860355
  H      -2.641563      0.899089      2.958697
  H       2.861981      3.129773     -1.498657
  H      -3.731520      0.062106     -2.488625
  H       4.557142     -1.921842     -1.410722
  H       0.617765      3.473641     -1.415262
  H      -4.531764     -0.176974      2.302408
  H      -6.178251      0.053878     -2.373832
  H      -6.125027     -1.280061     -1.072304
  H       4.324124     -4.166210     -0.461604
  H       4.287388     -3.450812      1.259242
38
Coordinates from ORCA-job honokiol_2 E -846.325217676633
  O       0.295255      2.724977     -0.910931
  O      -4.278990     -0.571620      1.462632
  C       1.049138      0.725426      0.100853
  C      -0.354627      0.394571      0.474431
  C      -2.473010     -0.711572     -0.050205
  C      -1.156546     -0.386030     -0.367597
  C       3.435377      0.174418      0.099233
  C       2.105785     -0.120587      0.429388
  C       1.332352      1.915357     -0.596222
  C      -0.903784      0.855269      1.670384
  C      -3.001090     -0.235568      1.162690
  C      -3.345671     -1.520446     -0.982370
  C       4.544867     -0.789597      0.463664
  C       3.687514      1.359455     -0.588257
  C      -2.216654      0.539973      2.015540
  C       2.649308      2.224274     -0.934759
  C      -4.241059     -0.638866     -1.816851
  C       4.472697     -2.069603     -0.326261
  C      -5.571234     -0.625780     -1.761935
  C       4.344253     -3.287240      0.199219
  H      -0.734607     -0.752828     -1.308408
  H       1.875487     -1.047859      0.963281
  H      -0.297144      1.470039      2.340013
  H      -2.696095     -2.108488     -1.650640
  H      -3.956141     -2.228368     -0.402125
  H       5.516373     -0.301641      0.279207
  H       4.507243     -1.019474      1.541047
  H       4.713969      1.622501     -0.860144
  H      -2.640027      0.901628      2.958058
  H       2.863678      3.152224     -1.474406
  H      -3.719627      0.045540     -2.498121
  H       4.517609     -1.953888     -1.416500
  H       0.621746      3.499212     -1.378740
  H      -4.528802     -0.176879      2.303052
  H      -6.165192      0.043775     -2.389687
  H      -6.119194     -1.281085     -1.077642
  H       4.290130     -4.180974     -0.427655
  H       4.287512     -3.437847      1.282464
38
Coordinates from ORCA-job honokiol_2 E -846.325376215266
  O       0.312768      2.803506     -0.808250
  O      -4.275274     -0.567434      1.466314
  C       1.052448      0.751582      0.101412
  C      -0.354950      0.416332      0.474188
  C      -2.459173     -0.724836     -0.031367
  C      -1.144649     -0.389591     -0.353575
  C       3.432561      0.176298      0.054855
  C       2.103057     -0.120999      0.380619
  C       1.343627      1.968499     -0.540642
  C      -0.913821      0.895510      1.659362
  C      -2.997649     -0.228504      1.166289
  C      -3.321136     -1.556657     -0.955004
  C       4.538331     -0.808041      0.384565
  C       3.693280      1.389356     -0.579753
  C      -2.223271      0.573131      2.006394
  C       2.661515      2.278985     -0.877198
  C      -4.197796     -0.699688     -1.832314
  C       4.396670     -2.112129     -0.352881
  C      -5.528719     -0.678102     -1.796224
  C       4.267458     -3.306360      0.223741
  H      -0.715926     -0.770768     -1.285673
  H       1.871028     -1.070878      0.872496
  H      -0.317631      1.529739      2.320300
  H      -2.666227     -2.173952     -1.592079
  H      -3.945665     -2.244134     -0.365209
  H       5.509956     -0.352537      0.128992
  H       4.562468     -1.000843      1.470237
  H       4.720238      1.653337     -0.849104
  H      -2.651177      0.951424      2.940656
  H       2.883580      3.227103     -1.377856
  H      -3.666243     -0.037159     -2.527834
  H       4.387397     -2.039238     -1.448025
  H       0.649055      3.594309     -1.239776
  H      -4.528802     -0.154524      2.296703
  H      -6.107468     -0.024932     -2.455145
  H      -6.089493     -1.309084     -1.099137
  H       4.165762     -4.220008     -0.368005
  H       4.264671     -3.416313      1.313630
38
Coordinates from ORCA-job honokiol_2 E -846.325639060105
  O       0.351407      2.927570     -0.621994
  O      -4.270065     -0.554887      1.458448
  C       1.060306      0.796483      0.110623
  C      -0.352486      0.455574      0.476072
  C      -2.431042     -0.741518     -0.006176
  C      -1.118069     -0.393281     -0.328780
  C       3.426957      0.178825     -0.018869
  C       2.097048     -0.116601      0.304021
  C       1.368475      2.053021     -0.437386
  C      -0.933924      0.968737      1.637220
  C      -2.992439     -0.209935      1.162945
  C      -3.270185     -1.614379     -0.914821
  C       4.520818     -0.842804      0.241528
  C       3.704771      1.431687     -0.563758
  C      -2.239956      0.636242      1.981715
  C       2.687824      2.361816     -0.772855
  C      -4.125723     -0.800946     -1.850815
  C       4.252913     -2.178365     -0.394521
  C      -5.457369     -0.779494     -1.843631
  C       4.141458     -3.330235      0.266126
  H      -0.672900     -0.800688     -1.242130
  H       1.857039     -1.098963      0.723045
  H      -0.357569      1.635946      2.283179
  H      -2.602494     -2.264852     -1.505082
  H      -3.909873     -2.275954     -0.311798
  H       5.476483     -0.448394     -0.144124
  H       4.663221     -0.977104      1.327775
  H       4.732589      1.693888     -0.831685
  H      -2.681718      1.042932      2.897774
  H       2.924430      3.339472     -1.206306
  H      -3.583237     -0.166220     -2.564237
  H       4.127652     -2.171282     -1.485178
  H       0.703745      3.741882     -0.992510
  H      -4.536419     -0.111908      2.268956
  H      -6.019153     -0.155550     -2.544636
  H      -6.032165     -1.380625     -1.131322
  H       3.947064     -4.271105     -0.256326
  H       4.253384     -3.376583      1.355212
38
Coordinates from ORCA-job honokiol_2 E -846.326013605680
  O       0.423741      3.068480     -0.396603
  O      -4.277674     -0.504041      1.438685
  C       1.066828      0.858902      0.136306
  C      -0.356035      0.523666      0.482792
  C      -2.397966     -0.749486      0.036735
  C      -1.084351     -0.391683     -0.279877
  C       3.409510      0.174367     -0.080311
  C       2.075145     -0.101556      0.236274
  C       1.412214      2.146572     -0.303753
  C      -0.977390      1.100144      1.594220
  C      -2.998761     -0.154392      1.152517
  C      -3.198673     -1.691474     -0.838513
  C       4.476648     -0.895371      0.095726
  C       3.723871      1.459668     -0.522836
  C      -2.282470      0.761982      1.929885
  C       2.737950      2.437361     -0.633884
  C      -4.030524     -0.953026     -1.853125
  C       4.100234     -2.231726     -0.477327
  C      -5.362194     -0.952543     -1.890365
  C       3.999912     -3.361612      0.222362
  H      -0.609778     -0.848697     -1.154515
  H       1.810613     -1.109005      0.573077
  H      -0.431753      1.819097      2.210651
  H      -2.508668     -2.379451     -1.357014
  H      -3.855082     -2.315680     -0.214032
  H       5.408195     -0.551000     -0.385928
  H       4.718212     -1.015106      1.166621
  H       4.756425      1.708611     -0.785571
  H      -2.751046      1.219456      2.808162
  H       3.005151      3.438680     -0.989338
  H      -3.477693     -0.352543     -2.588365
  H       3.877693     -2.249314     -1.552491
  H       0.804460      3.898087     -0.698963
  H      -4.567793     -0.014226      2.213248
  H      -5.905455     -0.380392     -2.648044
  H      -5.951190     -1.518946     -1.161100
  H       3.723068     -4.304411     -0.258343
  H       4.205426     -3.386990      1.298738
38
Coordinates from ORCA-job honokiol_2 E -846.326372761814
  O       0.523402      3.211447     -0.093144
  O      -4.301473     -0.414220      1.406288
  C       1.070663      0.928350      0.173586
  C      -0.365131      0.605934      0.493886
  C      -2.365708     -0.749698      0.103630
  C      -1.047869     -0.391147     -0.202767
  C       3.378171      0.170656     -0.158673
  C       2.037681     -0.080631      0.147051
  C       1.469339      2.240379     -0.121289
  C      -1.037985      1.268290      1.526991
  C      -3.017984     -0.067717      1.134693
  C      -3.116470     -1.781625     -0.714281
  C       4.405830     -0.952658     -0.099956
  C       3.745669      1.483821     -0.458883
  C      -2.345730      0.933304      1.847732
  C       2.803568      2.508312     -0.440476
  C      -3.890634     -1.159709     -1.844490
  C       3.909047     -2.279238     -0.594461
  C      -5.218614     -1.176555     -1.954231
  C       3.842753     -3.390409      0.138735
  H      -0.535027     -0.916135     -1.015799
  H       1.737547     -1.108951      0.372513
  H      -0.531530      2.053232      2.094091
  H      -2.401667     -2.522326     -1.114316
  H      -3.808674     -2.341295     -0.067626
  H       5.286667     -0.659623     -0.697757
  H       4.776348     -1.069844      0.934495
  H       4.784544      1.715737     -0.712486
  H      -2.850511      1.461470      2.664464
  H       3.113884      3.529679     -0.688714
  H      -3.305576     -0.629035     -2.608440
  H       3.559851     -2.310836     -1.635443
  H       0.944091      4.049366     -0.306387
  H      -4.622497      0.139782      2.123198
  H      -5.716972     -0.689652     -2.797767
  H      -5.843877     -1.672895     -1.204093
  H       3.473700     -4.327706     -0.288548
  H       4.171977     -3.405458      1.184375
38
Coordinates from ORCA-job honokiol_2 E -846.327095040095
  O       0.556547      3.246091     -0.103833
  O      -4.317432     -0.352406      1.396111
  C       1.067256      0.955007      0.217508
  C      -0.365597      0.647653      0.528596
  C      -2.352698     -0.732438      0.146996
  C      -1.029222     -0.386219     -0.136378
  C       3.367742      0.161479     -0.093758
  C       2.022871     -0.065288      0.212054
  C       1.485511      2.258331     -0.100910
  C      -1.065937      1.351321      1.515336
  C      -3.032026     -0.008359      1.134467
  C      -3.074612     -1.811028     -0.632109
  C       4.376620     -0.974737     -0.055103
  C       3.753850      1.465187     -0.409861
  C      -2.381624      1.024521      1.818151
  C       2.824911      2.501818     -0.413925
  C      -3.824408     -1.253249     -1.812848
  C       3.891228     -2.240986     -0.700709
  C      -5.147939     -1.292822     -1.962015
  C       3.751844     -3.411133     -0.078436
  H      -0.497015     -0.943222     -0.914630
  H       1.706015     -1.081929      0.464488
  H      -0.579718      2.169696      2.050087
  H      -2.339504     -2.557996     -0.977467
  H      -3.777552     -2.342957      0.026329
  H       5.302178     -0.646520     -0.558722
  H       4.659537     -1.187430      0.990445
  H       4.796975      1.680262     -0.660888
  H      -2.912184      1.584572      2.595798
  H       3.147848      3.515813     -0.673662
  H      -3.219996     -0.758708     -2.585117
  H       3.619773     -2.170634     -1.762647
  H       0.985052      4.072485     -0.345247
  H      -4.659899      0.223938      2.085287
  H      -5.627325     -0.860390     -2.844826
  H      -5.790958     -1.754574     -1.205547
  H       3.391348     -4.296523     -0.609828
  H       3.999341     -3.526226      0.982510
38
Coordinates from ORCA-job honokiol_2 E -846.327581504778
  O       0.649386      3.328709     -0.004763
  O      -4.343413     -0.248155      1.334435
  C       1.066986      1.004880      0.268576
  C      -0.366855      0.725708      0.549710
  C      -2.323316     -0.712777      0.205048
  C      -0.994760     -0.375242     -0.046871
  C       3.346727      0.141862     -0.041182
  C       1.991096     -0.043850      0.244861
  C       1.536230      2.303535     -0.010954
  C      -1.120296      1.507589      1.432464
  C      -3.052721      0.088935      1.096849
  C      -2.996431     -1.872869     -0.492803
  C       4.312235     -1.027321     -0.044161
  C       3.780020      1.439677     -0.314569
  C      -2.446140      1.189437      1.706136
  C       2.886335      2.507366     -0.297551
  C      -3.722325     -1.436641     -1.739445
  C       3.822916     -2.192798     -0.858925
  C      -5.038381     -1.521690     -1.927438
  C       3.589250     -3.416002     -0.384423
  H      -0.426162     -0.991111     -0.751369
  H       1.634198     -1.051497      0.479084
  H      -0.668023      2.380325      1.905602
  H      -2.228467     -2.619122     -0.754998
  H      -3.705142     -2.361973      0.191584
  H       5.282463     -0.685103     -0.440593
  H       4.497437     -1.360378      0.991467
  H       4.833358      1.627689     -0.542782
  H      -3.021925      1.806369      2.403859
  H       3.242183      3.518715     -0.520236
  H      -3.099042     -0.998135     -2.529621
  H       3.639151     -1.991756     -1.922532
  H       1.103476      4.142427     -0.242305
  H      -4.728385      0.378583      1.953808
  H      -5.500699     -1.177302     -2.856328
  H      -5.698153     -1.927111     -1.153859
  H       3.229871     -4.220237     -1.031697
  H       3.748115     -3.658334      0.671621
38
Coordinates from ORCA-job honokiol_2 E -846.327673671374
  O       0.634988      3.303047     -0.066984
  O      -4.343884     -0.256057      1.324938
  C       1.068381      0.989461      0.263334
  C      -0.363780      0.709145      0.547311
  C      -2.327983     -0.717123      0.187703
  C      -0.999497     -0.382220     -0.062548
  C       3.358264      0.140040     -0.015708
  C       2.002684     -0.049701      0.270993
  C       1.529384      2.285552     -0.045541
  C      -1.113599      1.485306      1.436509
  C      -3.052860      0.079614      1.089139
  C      -3.011136     -1.864676     -0.520787
  C       4.329036     -1.023725      0.017784
  C       3.781068      1.433300     -0.320676
  C      -2.441439      1.170522      1.708044
  C       2.878255      2.494012     -0.331903
  C      -3.774077     -1.399608     -1.734793
  C       3.886285     -2.177960     -0.839578
  C      -5.094392     -1.482883     -1.888318
  C       3.639999     -3.411309     -0.398675
  H      -0.435128     -0.992898     -0.774467
  H       1.651243     -1.054358      0.525007
  H      -0.653582      2.346352      1.923584
  H      -2.244362     -2.594827     -0.827067
  H      -3.696851     -2.375408      0.171126
  H       5.314949     -0.669492     -0.325040
  H       4.463018     -1.370947      1.056595
  H       4.833590      1.624766     -0.549000
  H      -3.016187      1.781692      2.411539
  H       3.223784      3.503795     -0.576707
  H      -3.169961     -0.940878     -2.528184
  H       3.749650     -1.954526     -1.905394
  H       1.080465      4.114372     -0.327916
  H      -4.729928      0.365792      1.948575
  H      -5.586359     -1.113970     -2.792164
  H      -5.732215     -1.911327     -1.108771
  H       3.316465     -4.207011     -1.074646
  H       3.756511     -3.673464      0.658386
38
Coordinates from ORCA-job honokiol_2 E -846.327722962048
  O       0.648832      3.311641     -0.040853
  O      -4.348035     -0.246538      1.300655
  C       1.072762      0.993614      0.270712
  C      -0.362666      0.714937      0.544747
  C      -2.322189     -0.718378      0.186719
  C      -0.991684     -0.385820     -0.055703
  C       3.361184      0.139937     -0.011199
  C       2.004653     -0.047707      0.272744
  C       1.539305      2.290397     -0.027042
  C      -1.121679      1.502082      1.415954
  C      -3.056200      0.089604      1.070409
  C      -3.000629     -1.873088     -0.515268
  C       4.324890     -1.030387      0.019032
  C       3.788729      1.433117     -0.308087
  C      -2.451431      1.189399      1.680047
  C       2.888873      2.496515     -0.312625
  C      -3.778994     -1.414678     -1.722005
  C       3.883561     -2.174528     -0.852272
  C      -5.100230     -1.505813     -1.861498
  C       3.627958     -3.410451     -0.424140
  H      -0.420315     -1.005626     -0.754108
  H       1.650449     -1.054142      0.516094
  H      -0.666370      2.368709      1.897832
  H      -2.230712     -2.596652     -0.829277
  H      -3.675352     -2.389378      0.183517
  H       5.315209     -0.678494     -0.314478
  H       4.451127     -1.387392      1.055234
  H       4.841632      1.622452     -0.536439
  H      -3.033511      1.809704      2.369441
  H       3.236415      3.506936     -0.552007
  H      -3.184800     -0.953323     -2.521371
  H       3.754087     -1.938949     -1.916299
  H       1.097466      4.121902     -0.299760
  H      -4.741283      0.383874      1.911069
  H      -5.604831     -1.140344     -2.759845
  H      -5.727194     -1.939368     -1.075952
  H       3.304877     -4.198430     -1.109459
  H       3.736895     -3.682933      0.631182
38
Coordinates from ORCA-job honokiol_2 E -846.327741524368
  O       0.658709      3.316997     -0.033575
  O      -4.347027     -0.245598      1.286476
  C       1.076662      0.996791      0.270741
  C      -0.361433      0.719413      0.537383
  C      -2.318290     -0.716040      0.177632
  C      -0.986840     -0.383891     -0.061393
  C       3.364769      0.140904     -0.004796
  C       2.006699     -0.045976      0.272450
  C       1.546877      2.293305     -0.021230
  C      -1.124231      1.509629      1.402527
  C      -3.055885      0.093403      1.056667
  C      -2.993690     -1.874895     -0.520948
  C       4.322799     -1.034400      0.028040
  C       3.796378      1.433560     -0.296850
  C      -2.454497      1.196985      1.663404
  C       2.897766      2.498167     -0.302257
  C      -3.793359     -1.419745     -1.715045
  C       3.886479     -2.171225     -0.855040
  C      -5.115557     -1.522350     -1.835449
  C       3.620067     -3.408179     -0.436591
  H      -0.411950     -1.006781     -0.754170
  H       1.651388     -1.053585      0.509481
  H      -0.671620      2.378117      1.883440
  H      -2.221312     -2.589407     -0.849390
  H      -3.653038     -2.402331      0.184587
  H       5.318712     -0.685967     -0.293079
  H       4.437511     -1.398332      1.063112
  H       4.850354      1.621570     -0.521449
  H      -3.039010      1.819749      2.348573
  H       3.247428      3.508694     -0.538180
  H      -3.214579     -0.950606     -2.521213
  H       3.770462     -1.928406     -1.919041
  H       1.110768      4.125822     -0.291011
  H      -4.743108      0.388320      1.891353
  H      -5.636899     -1.159614     -2.725366
  H      -5.726771     -1.964397     -1.042246
  H       3.301434     -4.190588     -1.130370
  H       3.714635     -3.686711      0.618521
38
Coordinates from ORCA-job honokiol_2 E -846.327745052768
  O       0.659620      3.317685     -0.035322
  O      -4.345521     -0.247008      1.286301
  C       1.077506      0.997595      0.269970
  C      -0.360896      0.720137      0.536057
  C      -2.317936     -0.713782      0.173769
  C      -0.986252     -0.381677     -0.064868
  C       3.365496      0.141584     -0.003934
  C       2.007182     -0.045438      0.272350
  C       1.547898      2.293921     -0.021797
  C      -1.123066      1.508773      1.403374
  C      -3.054867      0.093137      1.055469
  C      -2.992787     -1.872601     -0.525433
  C       4.322739     -1.034407      0.029022
  C       3.797674      1.434114     -0.295635
  C      -2.453152      1.195612      1.664301
  C       2.899054      2.498764     -0.301585
  C      -3.797617     -1.418463     -1.716522
  C       3.885077     -2.171546     -0.852955
  C      -5.119847     -1.525463     -1.832715
  C       3.618838     -3.408170     -0.433387
  H      -0.411775     -1.002828     -0.759504
  H       1.652443     -1.053245      0.509311
  H      -0.670749      2.376934      1.885136
  H      -2.219703     -2.584540     -0.857836
  H      -3.648033     -2.404275      0.180856
  H       5.319158     -0.687779     -0.292474
  H       4.437533     -1.397779      1.064349
  H       4.851848      1.622003     -0.519346
  H      -3.036739      1.816948      2.351559
  H       3.249303      3.509162     -0.537244
  H      -3.223271     -0.946893     -2.524444
  H       3.768569     -1.929726     -1.917160
  H       1.112484      4.126106     -0.292591
  H      -4.741058      0.386595      1.891866
  H      -5.645149     -1.164734     -2.721120
  H      -5.726665     -1.969627     -1.037326
  H       3.299432     -4.190733     -1.126640
  H       3.714028     -3.685955      0.621845
38
Coordinates from ORCA-job honokiol_2 E -846.327745034091
  O       0.672634      3.326192     -0.034027
  O      -4.346128     -0.236454      1.275965
  C       1.079904      1.003945      0.273168
  C      -0.360311      0.730042      0.533292
  C      -2.315331     -0.705466      0.170180
  C      -0.982223     -0.375153     -0.064018
  C       3.365566      0.139299      0.008982
  C       2.005249     -0.042884      0.279157
  C       1.556725      2.298411     -0.015661
  C      -1.126356      1.524305      1.392506
  C      -3.055837      0.104914      1.045483
  C      -2.984386     -1.872684     -0.520305
  C       4.315552     -1.042392      0.040095
  C       3.804914      1.430263     -0.278638
  C      -2.457409      1.212161      1.649513
  C       2.910209      2.498295     -0.287293
  C      -3.802818     -1.435079     -1.708564
  C       3.884362     -2.163290     -0.865739
  C      -5.124286     -1.560356     -1.814839
  C       3.603404     -3.404210     -0.468990
  H      -0.405051     -0.999455     -0.753412
  H       1.647681     -1.049936      0.514635
  H      -0.678142      2.397541      1.868653
  H      -2.206632     -2.578170     -0.855543
  H      -3.628098     -2.410522      0.192193
  H       5.320076     -0.699461     -0.259031
  H       4.409913     -1.421960      1.071737
  H       4.860993      1.614337     -0.496209
  H      -3.043136      1.837650      2.331148
  H       3.266300      3.507536     -0.519259
  H      -3.240784     -0.961772     -2.524062
  H       3.787888     -1.905819     -1.928307
  H       1.131061      4.131690     -0.290607
  H      -4.744568      0.403105      1.873346
  H      -5.660375     -1.214733     -2.702773
  H      -5.718661     -2.005793     -1.010831
  H       3.290246     -4.173555     -1.179656
  H       3.678654     -3.698140      0.583411
38
Coordinates from ORCA-job honokiol_2 E -846.327748846090
  O       0.664950      3.320440     -0.038296
  O      -4.345699     -0.242595      1.281622
  C       1.078530      0.999883      0.270479
  C      -0.360518      0.724112      0.534284
  C      -2.316951     -0.710527      0.171788
  C      -0.984845     -0.378932     -0.065343
  C       3.365951      0.140202      0.003230
  C       2.006566     -0.044555      0.276130
  C       1.551667      2.295255     -0.021233
  C      -1.124172      1.514990      1.398372
  C      -3.055137      0.097883      1.051075
  C      -2.989838     -1.872193     -0.524315
  C       4.320402     -1.037858      0.037148
  C       3.801058      1.431869     -0.287777
  C      -2.454642      1.202174      1.657887
  C       2.903932      2.497830     -0.296824
  C      -3.802465     -1.424040     -1.712428
  C       3.888086     -2.167001     -0.857821
  C      -5.124416     -1.540236     -1.822947
  C       3.614129     -3.406037     -0.450499
  H      -0.409498     -1.001246     -0.758146
  H       1.650512     -1.051733      0.513633
  H      -0.673281      2.384964      1.878130
  H      -2.214689     -2.580376     -0.859949
  H      -3.638981     -2.407712      0.184795
  H       5.321176     -0.692121     -0.271295
  H       4.423105     -1.409471      1.070822
  H       4.856221      1.618118     -0.508079
  H      -3.039062      1.825116      2.342980
  H       3.256719      3.507588     -0.531498
  H      -3.234924     -0.949321     -2.523295
  H       3.783256     -1.917003     -1.921350
  H       1.119896      4.127623     -0.295797
  H      -4.742746      0.393661      1.883423
  H      -5.656123     -1.184636     -2.709586
  H      -5.724199     -1.987468     -1.023938
  H       3.299257     -4.182024     -1.153151
  H       3.697576     -3.692223      0.603470
38
Coordinates from ORCA-job honokiol_2 E -846.327749923788
  O       0.666823      3.321366     -0.040062
  O      -4.345427     -0.241455      1.281184
  C       1.078870      1.000770      0.270169
  C      -0.360428      0.725716      0.533222
  C      -2.316720     -0.709443      0.171341
  C      -0.984707     -0.377656     -0.065940
  C       3.366119      0.139673      0.005601
  C       2.006341     -0.044134      0.277128
  C       1.553031      2.295790     -0.021618
  C      -1.124331      1.517058      1.396649
  C      -3.055062      0.099394      1.050127
  C      -2.989140     -1.871930     -0.523759
  C       4.319654     -1.039057      0.040442
  C       3.802249      1.431017     -0.285307
  C      -2.454787      1.204166      1.656224
  C       2.905705      2.497479     -0.295785
  C      -3.803991     -1.425421     -1.710924
  C       3.889757     -2.165392     -0.859264
  C      -5.125663     -1.545718     -1.820451
  C       3.611606     -3.404908     -0.456275
  H      -0.409199     -1.000432     -0.758197
  H       1.649474     -1.051029      0.514633
  H      -0.673499      2.387157      1.876254
  H      -2.213395     -2.579101     -0.860212
  H      -3.636683     -2.408246      0.186229
  H       5.321974     -0.693433     -0.263009
  H       4.417638     -1.413541      1.073515
  H       4.857768      1.616613     -0.504441
  H      -3.039302      1.827339      2.341030
  H       3.259371      3.506952     -0.530360
  H      -3.238549     -0.948752     -2.522114
  H       3.790332     -1.912671     -1.922661
  H       1.122346      4.128267     -0.297439
  H      -4.742813      0.395261      1.882274
  H      -5.659294     -1.191523     -2.706485
  H      -5.723190     -1.995394     -1.021116
  H       3.298532     -4.178559     -1.162293
  H       3.689392     -3.693827      0.597388
