! B3LYP def2-SVP OPT NormalSCF ALLPOP KEEPDENS D3BJ

%pal
nprocs 28
end

%maxcore 5000

%scf
 SmearTemp 500 
end


* xyz -1 2
  C           3.34853667348258     -1.88226764902592      0.36528950653441
  C           3.63642768581380     -0.45524677677275      0.38107325071857
  C           3.23775800448316      0.31631699668541      1.47058133150450
  C           2.66745629971296     -2.46627266954391      1.43395299585429
  C           3.02171090406058     -2.25047838831512     -0.99474878191219
  C           3.49598737680814      0.05097418712171     -0.96869852160427
  C           2.68598267602449      1.64476726209003      1.25125180448746
  C           2.52874897742302     -0.28953928818019      2.57397123520567
  C           1.63111787073055     -3.45104998353281      1.17055103551472
  C           2.24735609719887     -1.66216134087861      2.55945329762279
  C           2.02864547203895     -3.19286128857746     -1.24778518760448
  C           3.10476834723120     -1.04832216499397     -1.81422280627820
  C           2.92995424472626      1.31788261254026     -1.17635917275869
  C           1.61056920731808      1.84614385299324      2.18872086046184
  C           2.53223412603951      2.10586926944055     -0.05187689663857
  C           1.50859368457373      0.64844243983801      2.99026720992919
  C           1.32262629318381     -3.80795814498993     -0.13444105111261
  C           0.56569379754015     -3.24400999858819      2.13813603367533
  C           0.94760802454338     -2.12746073847809      2.98621897556810
  C           1.08567172960385     -2.99196703413259     -2.32696340368529
  C           2.18437020036989     -0.84361649417828     -2.83895418638582
  C           1.95549700935351      1.54050673949873     -2.21749092266864
  C           0.48647069679239      2.60312222774867      1.83693188065084
  C           1.39603805607433      2.91958788379368     -0.40076311490617
  C           0.25423007302208      0.21199840521536      3.38339769870481
  C          -0.06348765567954     -3.98147042141853     -0.53325260945552
  C          -0.75818363046902     -3.41060426847133      1.75697937083452
  C          -0.02702012322037     -1.21815247064155      3.40286945998264
  C          -0.20279357041128     -3.47610617377247     -1.88972789868344
  C           1.16567527684721     -1.82930601540113     -3.11142995472614
  C           1.60601926110323      0.48124218003832     -3.04545576244151
  C           0.95845550189634      2.51950128533984     -1.75137849398394
  C           0.58061993758467      3.39508467464143      0.61291827865948
  C          -0.85281429126167      2.11659996285737      2.18321190138888
  C          -0.93176008020956      0.93387831019381      2.97338985380593
  C          -1.08039097266830     -3.79113350674956      0.39205418306970
  C          -1.77236218957854     -2.46831331891022      2.20327407979701
  C          -1.39919330386898     -1.39023845772013      3.00612030234901
  C          -1.37030436136122     -2.80535054440527     -2.25548525133379
  C          -0.04312153063696     -1.12178433467927     -3.47584600603458
  C           0.23367089623792      0.30959476242085     -3.44166702735252
  C          -0.38168174284762      2.35441899779818     -2.13903767398074
  C          -1.51053055878399      3.13426851789882      0.01480854412246
  C          -1.88524882892066      2.30111223832010      1.15292452566293
  C          -1.95259818303956     -0.06432216050637      2.75264043852654
  C          -2.29660139054522     -3.09060299221098      0.00993005431830
  C          -2.72597350014891     -2.28981403852877      1.13138515483001
  C          -2.43121787727127     -2.61096512296536     -1.29528037614783
  C          -1.28443779349322     -1.60232158002899     -3.07285042770904
  C          -0.73105092927780      1.20602880037117     -2.99277472500441
  C          -1.54251894202606      2.55497218719247     -1.24506999202192
  C          -2.81296312234091      1.28609090417941      0.91611205138825
  C          -2.87711217620099      0.09373995065556      1.73159174166400
  C          -3.28175247374107     -1.02062251440841      0.90814323055864
  C          -3.00577432404199     -1.29241629986452     -1.52465544047156
  C          -2.30105633736629     -0.67808619969421     -2.63083094689823
  C          -2.01996771994837      0.69364219665526     -2.59839510714134
  C          -2.46736588749356      1.47959368814580     -1.48756184536541
  C          -3.16466573966373      0.90738698795490     -0.43056922902872
  C          -3.42544430904319     -0.52341646144897     -0.44193280648318
  H           0.67287825217026      4.84293932470753      4.54332872567106
  C          -0.26239887578003      5.41901366588066      4.49296481761272
  H          -0.38794865104234      5.97286173581385      5.43510586839025
  H           0.60007204594880      7.09260878001680      3.40577494479695
  C          -0.23331355137022      6.38191152857766      3.32257076896453
  O           0.00242237745795      5.68236507424769      2.10026354411728
  H          -1.09834989373922      4.71199605953096      4.39284858930570
  C          -1.04688473363713      5.10162523365486      1.51903734112055
  C          -0.58891244202667      4.26716377949136      0.31265849628216
  O          -2.18535664735601      5.24242708903083      1.86804469129544
  H          -1.17710770666495      6.94193759854241      3.24220128035469
  C          -0.37543092363935      5.26383071402407     -0.83298098318875
  H          -3.48266821666680      5.97477219330621     -3.07242628284930
  O          -1.54837103365359      5.65370974331939     -1.32834609893894
  H          -0.96103201390531      6.08313164668887     -3.25659115774670
  O           0.68377366322888      5.68386425692411     -1.20576954612033
  C          -1.50780997470791      6.56076380118587     -2.42775181421741
  C          -2.93379832227595      6.88864667913376     -2.80405761566955
  H          -2.95069619099875      7.57197538157455     -3.66575279189082
  H          -3.45745054297526      7.36918775719544     -1.96504874267785
  H          -0.93561065213788      7.45625964034116     -2.13652953741457
  O           0.85402561815100      8.74040115128777      5.65302280353084
  O          -0.32194244063830      8.91696148590900      5.69712403169996
*
