2
Coordinates from ORCA-job O2 E -150.118265250358
  O       0.000000      0.000000      0.000000
  O       1.330000      0.000000      0.000000
2
Coordinates from ORCA-job O2 E -150.118330744260
  O      -0.003441      0.000000      0.000000
  O       1.333441      0.000000      0.000000
2
Coordinates from ORCA-job O2 E -150.118335054193
  O      -0.004558      0.000000      0.000000
  O       1.334558      0.000000      0.000000
2
Coordinates from ORCA-job O2 E -150.118335057860
  O      -0.004591      0.000000      0.000000
  O       1.334591      0.000000      0.000000
