2
Coordinates from ORCA-job O2 E -150.063099112707
  O       0.000000      0.000000      0.000000
  O       1.330000      0.000000      0.000000
2
Coordinates from ORCA-job O2 E -150.081036033242
  O       0.053401      0.000000      0.000000
  O       1.276599      0.000000      0.000000
2
Coordinates from ORCA-job O2 E -150.081452984334
  O       0.070801      0.000000      0.000000
  O       1.259199      0.000000      0.000000
2
Coordinates from ORCA-job O2 E -150.081719115229
  O       0.063752      0.000000      0.000000
  O       1.266248      0.000000      0.000000
2
Coordinates from ORCA-job O2 E -150.081720828779
  O       0.064259      0.000000      0.000000
  O       1.265741      0.000000      0.000000
2
Coordinates from ORCA-job O2 E -150.081720832960
  O       0.064285      0.000000      0.000000
  O       1.265715      0.000000      0.000000
