3
Coordinates from ORCA-job water_2 E -76.321813218989
  O       0.949000     -0.036000     -0.063490
  H       1.916880     -0.058900     -0.103880
  H       0.670150     -0.493710     -0.870760
3
Coordinates from ORCA-job water_2 E -76.321840497797
  O       0.948376     -0.035557     -0.062708
  H       1.913387     -0.060447     -0.106608
  H       0.674267     -0.492607     -0.868814
3
Coordinates from ORCA-job water_2 E -76.321843887982
  O       0.947678     -0.035070     -0.061849
  H       1.912761     -0.061030     -0.107637
  H       0.675591     -0.492510     -0.868644
3
Coordinates from ORCA-job water_2 E -76.321844558086
  O       0.947228     -0.034757     -0.061297
  H       1.912614     -0.061316     -0.108142
  H       0.676188     -0.492537     -0.868691
3
Coordinates from ORCA-job water_2 E -76.321844560573
  O       0.947227     -0.034756     -0.061295
  H       1.912633     -0.061311     -0.108132
  H       0.676170     -0.492544     -0.868703
