! B3LYP def2-SVP OPT TightSCF D3BJ

%pal
nprocs 28
end

* xyz 0 1
N          4.01505        6.27252        0.79497
C          8.24758        6.27245        0.82460
C          5.39107        6.27247        0.80373
C          7.51421        5.07684        0.82228
C          7.51421        7.46812        0.82163
C          6.12087        5.06672        0.81142
C          6.12091        7.47826        0.81076
C          9.75594        6.27261        0.79960
H          8.04779        4.12137        0.83112
H          8.04779        8.42361        0.82995
H          5.58394        4.11353        0.81341
H          5.58398        8.43145        0.81223
H         10.16826        7.16009        1.30533
H         10.16815        5.37986        1.29599
H         10.14620        6.27809       -0.23434
H          3.49789        7.13811        0.78995
H          3.49782        5.40697        0.79042
O          4.04920        6.77139       -0.23681
H          4.61704        7.47504       -0.57934
H          4.35990        5.98861       -0.71174
*
