20
Coordinates from ORCA-job p_toluidine_water_2 E -402.840587835588
  N           4.06292886581677      6.04623510531870      1.31762492343915
  C           8.28257007366378      6.23290592021494      0.86581766903798
  C           5.44205190144358      6.09246916333936      1.15581075234146
  C           7.62864080073461      5.01496571001043      1.10371842151585
  C           7.48194449488938      7.38245852834506      0.79269238860978
  C           6.24306873054784      4.93796562752222      1.24089148499968
  C           6.09666002117143      7.32416705847381      0.94096817480399
  C           9.77757903962833      6.30176705322173      0.67685009463080
  H           8.21853211096871      4.09634402549100      1.17882529686643
  H           7.95573115379763      8.35568599771858      0.63095358086984
  H           5.76828800442279      3.96839318391348      1.41891130074265
  H           5.50848495050407      8.24642690504186      0.93499454959998
  H          10.18812520720124      7.25425531650257      1.04772697063372
  H          10.28894398361010      5.48410868925447      1.20839145133900
  H          10.05746077674800      6.22167829471366     -0.38918668496441
  H           3.56332193661414      6.70732272396501      0.72336644061206
  H           3.66099231312535      5.11578120006296      1.27151657169093
  O           3.71539151922119      7.53862329823828     -1.24872861919369
  H           4.60217381712537      7.89084377394259     -1.07863029109737
  H           3.90491029876533      6.65571242470898     -1.59735447647788
