# avogadro generated ORCA input file 
# Basic Mode
# 
! MP2 SP def2-SVP 

%pal
nprocs 34
end

* xyz 0 1
   C        3.36385       -1.99584        0.38646
   C        3.66055       -0.57285        0.43521
   C        3.24083        0.19236        1.52993
   C        2.65579       -2.60009        1.43242
   C        3.06154       -2.34719       -0.99412
   C        3.52891       -0.04432       -0.91554
   C        2.68634        1.51935        1.31924
   C        2.49219       -0.43431        2.60563
   C        1.61945       -3.57839        1.13966
   C        2.20962       -1.80097        2.56343
   C        2.06732       -3.28952       -1.27468
   C        3.16250       -1.13814       -1.79683
   C        2.96525        1.21888       -1.11221
   C        1.58281        1.70918        2.24615
   C        2.55208        2.00833        0.02176
   C        1.46576        0.50539        3.03265
   C        1.33369       -3.91928       -0.18663
   C        0.53446       -3.38568        2.09143
   C        0.89500       -2.28044        2.96586
   C        1.13794       -3.06222       -2.37168
   C        2.25990       -0.90971       -2.83933
   C        2.00935        1.46506       -2.17527
   C        0.46725        2.47722        1.87801
   C        1.41956        2.82563       -0.34340
   C        0.20174        0.05572        3.39970
   C       -0.04719       -4.08725       -0.61375
   C       -0.79306       -3.54695        1.68045
   C       -0.08459       -1.37201        3.38264
   C       -0.16724       -3.56163       -1.96546
   C        1.23252       -1.89436       -3.13820
   C        1.68026        0.41383       -3.03167
   C        1.00726        2.43337       -1.70273
   C        0.57561        3.29583        0.66903
   C       -0.88661        1.96651        2.18929
   C       -0.98028        0.78308        2.96108
   C       -1.08994       -3.90896        0.30161
   C       -1.81255       -2.61139        2.12910
   C       -1.45957       -1.53957        2.95751
   C       -1.32709       -2.88258       -2.35126
   C        0.02672       -1.18089       -3.52921
   C        0.30692        0.24734       -3.45636
   C       -0.33714        2.27445       -2.12066
   C       -1.50375        3.04089        0.03062
   C       -1.90782        2.18383        1.14331
   C       -2.01310       -0.21479        2.71689
   C       -2.29807       -3.20460       -0.09952
   C       -2.74662       -2.40642        1.03166
   C       -2.41515       -2.70096       -1.40056
   C       -1.22687       -1.67322       -3.15453
   C       -0.66507        1.14123       -3.00315
   C       -1.51406        2.47096       -1.24894
   C       -2.83732        1.16909        0.87888
   C       -2.91733       -0.03068        1.67699
   C       -3.29656       -1.14096        0.81622
   C       -2.99147       -1.38385       -1.62202
   C       -2.25031       -0.74901       -2.70222
   C       -1.96738        0.61833       -2.63686
   C       -2.44353        1.40100       -1.52375
   C       -3.16361        0.80567       -0.48959
   C       -3.43391       -0.62162       -0.53423
   H        1.01079        5.70594        4.39439
   C       -0.02502        6.07921        4.37886
   H       -0.14197        6.80711        5.19798
   H        0.31794        7.60819        2.86708
   C       -0.34142        6.74847        3.05268
   O       -0.09377        5.86121        1.93801
   H       -0.70881        5.23855        4.56885
   C       -1.06593        5.01385        1.58305
   C       -0.59369        4.18199        0.36495
   O       -2.14368        4.93390        2.10853
   H       -1.38979        7.07988        3.01259
   C       -0.37576        5.20146       -0.77482
   H       -3.62271        6.46433       -2.59559
   O       -1.54600        5.77178       -1.08241
   H       -1.12736        6.33894       -3.03390
   O        0.67586        5.47844       -1.28485
   C       -1.53396        6.78416       -2.11160
   C       -2.95187        7.28288       -2.29224
   H       -2.97708        8.05869       -3.07354
   H       -3.33996        7.71875       -1.35860
   H       -0.84376        7.58709       -1.80568
*

