! B3LYP def2-SVP SP TightSCF ALLPOP KEEPDENS

%maxcore 5000

%pal
nprocs 20
end

* xyz 0 1
  N          -2.34225861828406      3.25633118922103      0.48030657776990
  C          -0.97006033523436      3.28480781542691      0.28425153578390
  C          -0.32786487541871      4.48985140004220     -0.08042737142917
  C          -0.16742757740573      2.14191514716733      0.47601086725168
  C           1.05340982658337      4.53412490416460     -0.27042369633731
  C           1.21430109512712      2.20072293125570      0.29616346213624
  C           1.83889689649123      3.39191208539290     -0.08707773444909
  H          -0.92315419199700      5.40315206119891     -0.16939551012337
  H          -0.64130276493969      1.19918718066707      0.76542540848805
  H           1.52323483647789      5.48063927624105     -0.55195329771701
  H           1.81079877927445      1.29746949155852      0.45135237543012
  H           2.92046699777461      3.43112265530320     -0.23235388624904
  H          -2.74642869912198      2.32885984986825      0.55403200840895
  H          -2.86281827250510      3.85787838482350     -0.15820897266294
  O          -2.81677067007110      4.56649667423272     -2.16511469717438
  H          -2.70709866033913      3.67431382517214     -2.52434618322518
  H          -1.90091376641180      4.85956512826374     -2.04055088590137
*
